                                  MODFLOW-USG      
      U.S. GEOLOGICAL SURVEY MODULAR FINITE-DIFFERENCE GROUNDWATER FLOW MODEL
                            VERSION 1.4.00 01/20/2016

 LIST FILE: NWTP3.list
                         UNIT    2

 OPENING NWTP3.dis
 FILE TYPE:DIS   UNIT   11   STATUS:OLD    
 FORMAT:FORMATTED              ACCESS:SEQUENTIAL          

 OPENING NWTP3.bas
 FILE TYPE:BAS6   UNIT   13   STATUS:OLD    
 FORMAT:FORMATTED              ACCESS:SEQUENTIAL          

 OPENING NWTP3.lpf
 FILE TYPE:LPF   UNIT   31   STATUS:OLD    
 FORMAT:FORMATTED              ACCESS:SEQUENTIAL          

 OPENING NWTP3_Rlow.rch
 FILE TYPE:RCH   UNIT   19   STATUS:OLD    
 FORMAT:FORMATTED              ACCESS:SEQUENTIAL          

 OPENING NWTP3.oc
 FILE TYPE:OC   UNIT   14   STATUS:OLD    
 FORMAT:FORMATTED              ACCESS:SEQUENTIAL          

 OPENING NWTP3.hds
 FILE TYPE:DATA(BINARY)   UNIT   51   STATUS:REPLACE
 FORMAT:UNFORMATTED            ACCESS:STREAM              

 OPENING NWTP3.sms
 FILE TYPE:SMS   UNIT   32   STATUS:OLD    
 FORMAT:FORMATTED              ACCESS:SEQUENTIAL          

 BAS -- BASIC PACKAGE-USG      1.4.00 01/20/2016                        INPUT READ FROM UNIT   13
 
 # Basic package file for MODFLOW, generated by Flopy.                           
 THE FREE FORMAT OPTION HAS BEEN SELECTED

 DIS -- UNSTRUCTURED GRID DISCRETIZATION PACKAGE, VERSION 1 : 5/17/2010 - INPUT READ FROM UNIT   11
 # Discretization file for MODFLOW, generated by Flopy.
    1 LAYERS        80 ROWS        80 COLUMNS
    1 STRESS PERIOD(S) IN SIMULATION
 MODEL TIME UNIT IS DAYS
 MODEL LENGTH UNIT IS METERS
  Confining bed flag for each layer:
   0

 DIS -- UNSTRUCTURED GRID DISCRETIZATION PACKAGE, VERSION 1 : 5/17/2010 - INPUT READ FROM UNIT   11

                     DELR =   100.000    

                     DELC =   100.000    

 TOP ELEVATION OF LAYER 1 =   200.000    



             MODEL LAYER BOTTOM EL. FOR LAYER   1
 READING ON UNIT   11 WITH FORMAT: (80G15.6)           


 STRESS PERIOD     LENGTH       TIME STEPS     MULTIPLIER FOR DELT    SS FLAG
 ----------------------------------------------------------------------------
        1         365.0000          1                    1.000         SS

 STEADY-STATE SIMULATION






                     BOUNDARY ARRAY FOR LAYER   1
 READING ON UNIT   13 WITH FORMAT: (80I10)             

 AQUIFER HEAD WILL BE SET TO  -999.99     AT ALL NO-FLOW NODES (IBOUND=0).



                       INITIAL HEAD FOR LAYER   1
 READING ON UNIT   13 WITH FORMAT: (80G15.6)           
 # Output control package file for MODFLOW, generated by Flopy. Output control by words option

 OUTPUT CONTROL IS SPECIFIED ONLY AT TIME STEPS FOR WHICH OUTPUT IS DESIRED
 HEAD PRINT FORMAT CODE IS   0    DRAWDOWN PRINT FORMAT CODE IS   0
 HEADS WILL BE SAVED ON UNIT   51    DRAWDOWNS WILL BE SAVED ON UNIT    0

 LPF -- LAYER-PROPERTY FLOW PACKAGE, VERSION 7, 5/2/2005
         INPUT READ FROM UNIT   31
 # UPW for MODFLOW-NWT, generated by Flopy.
 CELL-BY-CELL FLOWS WILL BE SAVED ON UNIT   53
 HEAD AT CELLS THAT CONVERT TO DRY=  -998.99    
 No named parameters

   LAYER FLAGS:
 LAYER       LAYTYP        LAYAVG         CHANI        LAYVKA        LAYWET
 ---------------------------------------------------------------------------
    1             4             0     1.000E+00             0             0

   INTERPRETATION OF LAYER FLAGS:
                        INTERBLOCK     HORIZONTAL    DATA IN
         LAYER TYPE   TRANSMISSIVITY   ANISOTROPY   ARRAY VKA   WETTABILITY
 LAYER      (LAYTYP)      (LAYAVG)       (CHANI)      (LAYVKA)      (LAYWET)
 ---------------------------------------------------------------------------
    1      UPSTREAM      HARMONIC     1.000E+00    VERTICAL K  NON-WETTABLE

 WETTING CAPABILITY IS NOT ACTIVE IN ANY LAYER

    HYD. COND. ALONG ROWS =   1.00000     FOR LAYER   1

      VERTICAL HYD. COND. =   1.00000     FOR LAYER   1

 RCH -- RECHARGE PACKAGE, VERSION 7, 5/2/2005 INPUT READ FROM UNIT   19
 # RCH for MODFLOW, generated by Flopy.
 No named parameters
 OPTION 3 -- RECHARGE TO HIGHEST ACTIVE NODE IN EACH VERTICAL COLUMN


     0 Recharge parameters

 SMS -- SPARSE MATRIX SOLVER PACKAGE, VERSION 7, 5/2/2005
         INPUT READ FROM UNIT 32
 # SMS for MODFLOW-USG, generated by Flopy.
 No named parameters
 ALL SOLVER INPUT DATA WILL BE READ 
FROM THE SOLVER INPUT FILE. 
 OUTER ITERATION CONVERGENCE CRITERION (HCLOSE) =    0.100000E-05
 INNER ITERATION CONVERGENCE CRITERION (HICLOSE) =    0.100000E-05
 MAXIMUM NUMBER OF OUTER ITERATIONS (MXITER)     =       500
 MAXIMUM NUMBER OF INNER ITERATIONS (ITER1)      =       200
 SOLVER PRINTOUT INDEX             (IPRSMS)      =         2
 NONLINEAR ITERATION METHOD    (NONLINMETH)      =         1
 LINEAR SOLUTION METHOD           (LINMETH)      =         1
 NEWTON DAMPENING                 (INWTDMP)      =         F
 D-B-D WEIGHT REDUCTION FACTOR      (THETA)      =    0.900000E+00
 D-B-D WEIGHT INCREASE INCREMENT    (KAPPA)      =    0.100000E-03
 D-B-D PREVIOUS HISTORY FACTOR      (GAMMA)      =    0.000000E+00
 MOMENTUM TERM                  (AMOMENTUM)      =    0.100000E+00
 MAXIMUM NUMBER OF BACKTRACKS    (NUMTRACK)      =        20
 BACKTRACKING TOLERANCE FACTOR       (BTOL)      =    0.200000E+01
 BACKTRACKING REDUCTION FACTOR     (BREDUC)      =    0.600000E+00
 BACKTRACKING REIDUAL LIMIT       (RES_LIM)      =    0.100000E+01
 ***Newton Linearization will be used***
 
 ***XMD linear solver will be used***
 XMD -- LINEAR SOLUTION BY XMD PACKAGE VERSION 1.30
     BY MOTOMU IBARAKI, OHIO STATE UNIVERSITY, COLOMBUS, OH
                 INPUT READ FROM UNIT 32
 ACCELERATION METHOD                    (IACL) =         2
 EQUATION ORDERING FLAG               (NORDER) =         0
 LEVEL OF FILL                         (LEVEL) =         3
 MAXIMUM NUMBER OF ORTHOGONALIZATIONS  (NORTH) =         7
 INDEX FOR USING REDUCED SYSTEM      (IREDSYS) =         0
 RESID. REDUCTION CONVERGE CRITERION  (RRCTOL) =  0.100000E-03
 INDEX FOR USING DROP TOLERANCE     (IDROPTOL) =         1
 DROP TOLERANCE VALUE                 ((EPSRN) =  0.100000E-03
 
1
                            STRESS PERIOD NO.    1, LENGTH =   365.0000    
                            -----------------------------------------------

                              NUMBER OF TIME STEPS =     1

                               MULTIPLIER FOR DELT =     1.000

                            INITIAL TIME STEP SIZE =   365.0000    

 RCH -- RECHARGE PACKAGE, VERSION 7, 5/2/2005 INPUT READ FROM UNIT   19



                           RECHARGE
 READING ON UNIT   19 WITH FORMAT: (80G15.6)           
 
 SOLVING FOR HEAD 

 Outer-Iteration  Inner-Iteration  Backtracking  Number of        Incoming       Outgoing  Maximum HeadChange      Maximum Head Change
     Number           Count           Flag       Backtracks       Residual       Residual           Value              Location
        1                             0             0           183092.          183092.    
          iter =     0  omega =  1.83092D+05  absolute =  1.70248D+01  rms  =  1.03475D+02
          iter =     1  omega =  2.74191D-01  absolute =  9.61970D+00  rms  =  4.66123D+01
          iter =     2  omega =  7.30667D-02  absolute =  3.50560D+00  rms  =  2.87389D+01
          iter =     3  omega =  9.27858D-01  absolute =  2.78487D+00  rms  =  1.59624D+01
          iter =     4  omega = -4.45748D-02  absolute =  3.01513D-01  rms  =  1.46903D+01
          iter =     5  omega = -1.30433D+00  absolute =  1.84698D+01  rms  =  3.47131D+01
          iter =     6  omega =  4.04231D+02  absolute =  5.14772D+01  rms  =  2.57047D+01
          iter =     7  omega = -1.90357D-01  absolute =  1.36643D+01  rms  =  1.95616D+01
          iter =     8  omega = -6.98404D+00  absolute =  6.18154D+01  rms  =  3.35227D+01
          iter =     9  omega =  3.68623D-01  absolute =  1.13320D+01  rms  =  1.91590D+01
          iter =    10  omega =  5.29495D-01  absolute =  8.70977D+00  rms  =  1.03208D+01
          iter =    11  omega =  3.17623D-01  absolute =  5.75904D+00  rms  =  5.23248D+00
          iter =    12  omega =  6.28883D-01  absolute =  1.51568D+00  rms  =  3.61926D+00
          iter =    13  omega = -2.82583D-01  absolute =  1.27737D+00  rms  =  2.80107D+00
          iter =    14  omega = -1.42146D-01  absolute =  1.91873D-01  rms  =  2.37695D+00
          iter =    15  omega =  4.08962D-01  absolute =  9.13963D-01  rms  =  1.93488D+00
          iter =    16  omega = -4.60688D-01  absolute =  2.21038D-01  rms  =  2.07078D+00
          iter =    17  omega = -8.42712D+00  absolute =  4.92571D+00  rms  =  3.76945D+00
          iter =    18  omega =  2.49508D+01  absolute =  5.16654D+02  rms  =  1.94671D+02
          iter =    19  omega =  3.28896D+03  absolute =  9.99388D+03  rms  =  9.17246D-01
          iter =    20  omega =  1.56048D-04  absolute =  2.08279D+00  rms  =  1.31022D-01
          iter =    21  omega =  4.83336D-02  absolute =  1.29156D-01  rms  =  7.90843D-02
        1               23                                                                        -19.4700               1     1    80  lay row col
        2                             0             0           3358.81          3358.81    
          iter =     0  omega =  3.35881D+03  absolute =  1.02986D+01  rms  =  9.91275D+00
          iter =     1  omega = -1.60521D-02  absolute =  3.98271D+00  rms  =  1.06066D+01
          iter =     2  omega = -3.01190D+00  absolute =  8.47191D+00  rms  =  1.13700D+01
          iter =     3  omega =  2.83757D+00  absolute =  8.76181D+00  rms  =  6.89584D+00
          iter =     4  omega = -1.70425D+00  absolute =  2.45136D+01  rms  =  1.96895D+00
          iter =     5  omega = -8.76011D-02  absolute =  5.55709D-01  rms  =  1.03877D+00
          iter =     6  omega = -2.96002D-01  absolute =  1.53454D+00  rms  =  1.19569D+00
          iter =     7  omega = -5.75455D+00  absolute =  1.84977D+01  rms  =  1.75854D+00
          iter =     8  omega =  6.52713D+01  absolute =  3.97130D+01  rms  =  3.59568D-01
          iter =     9  omega = -1.63329D-02  absolute =  1.53926D+00  rms  =  2.68143D-01
          iter =    10  omega = -3.05827D-02  absolute =  5.09540D-01  rms  =  2.13958D-01
          iter =    11  omega = -3.46525D-01  absolute =  3.76657D+00  rms  =  1.08117D-01
          iter =    12  omega = -1.00872D+02  absolute =  9.45120D+00  rms  =  1.16803D-01
          iter =    13  omega =  9.80443D-03  absolute =  1.09660D-01  rms  =  7.80112D-02
          iter =    14  omega =  6.44246D-01  absolute =  3.47756D-01  rms  =  8.11413D-02
          iter =    15  omega = -8.85191D+00  absolute =  1.66329D+00  rms  =  6.70115D-02
          iter =    16  omega = -1.35730D-01  absolute =  2.70560D-01  rms  =  6.46674D-02
          iter =    17  omega =  1.11146D-01  absolute =  2.69327D+00  rms  =  5.59833D-02
          iter =    18  omega = -6.36899D-01  absolute =  1.93054D+00  rms  =  7.34728D-02
          iter =    19  omega =  8.21806D+01  absolute =  7.14750D-01  rms  =  6.96782D-02
          iter =    20  omega =  6.76710D-02  absolute =  1.70232D-01  rms  =  6.36991D-02
          iter =    21  omega = -1.11343D+00  absolute =  6.07502D+00  rms  =  6.82914D-02
          iter =    22  omega = -5.21873D+00  absolute =  6.27418D-01  rms  =  4.96248D-02
          iter =    23  omega = -1.87859D+00  absolute =  2.77881D+01  rms  =  1.03038D-02
        2               25                                                                        -5.58804               1    66    72  lay row col
        3                             0             0           357.075          357.075    
          iter =     0  omega =  3.57075D+02  absolute =  1.87870D+01  rms  =  1.82668D+00
          iter =     1  omega = -4.84445D-03  absolute =  1.95574D+01  rms  =  1.83839D+00
          iter =     2  omega = -1.91083D+00  absolute =  1.95397D+02  rms  =  5.79429D-01
          iter =     3  omega =  1.12290D+00  absolute =  2.35953D+01  rms  =  3.96226D-01
          iter =     4  omega = -7.18918D-02  absolute =  2.47738D+01  rms  =  6.03570D-01
          iter =     5  omega = -1.97884D+01  absolute =  6.92648D+01  rms  =  2.77556D-02
          iter =     6  omega = -1.67694D-02  absolute =  3.49745D+00  rms  =  3.84967D-02
          iter =     7  omega = -1.00162D-01  absolute =  2.41882D+00  rms  =  4.58422D-02
          iter =     8  omega = -3.54743D+00  absolute =  1.04065D+01  rms  =  9.53952D-02
          iter =     9  omega =  3.13117D+00  absolute =  4.72196D+02  rms  =  1.05772D+00
          iter =    10  omega = -2.06664D+02  absolute =  8.17273D+02  rms  =  6.12069D-01
          iter =    11  omega = -1.51495D+00  absolute =  1.13487D+03  rms  =  2.79178D-01
          iter =    12  omega =  2.05436D-01  absolute =  8.64655D+02  rms  =  9.17874D-02
          iter =    13  omega =  8.57297D-01  absolute =  2.82502D+02  rms  =  5.69777D-02
          iter =    14  omega = -2.08606D+00  absolute =  3.04017D+04  rms  =  2.64345D-01
          iter =    15  omega = -1.37171D+01  absolute =  1.18194D+04  rms  =  6.59045D-02
          iter =    16  omega =  1.18842D+00  absolute =  6.32810D+03  rms  =  4.98702D-02
          iter =    17  omega =  1.34338D+00  absolute =  5.32405D+04  rms  =  2.26717D-01
          iter =    18  omega = -3.24915D+01  absolute =  2.76226D+05  rms  =  2.45662D-02
          iter =    19  omega =  2.29782D-03  absolute =  8.98966D+02  rms  =  2.55161D-02
          iter =    20  omega = -4.89160D-02  absolute =  4.68000D+01  rms  =  2.00249D-02
          iter =    21  omega =  5.99206D-01  absolute =  1.66457D+02  rms  =  5.73360D-02
          iter =    22  omega =  5.49520D+01  absolute =  9.63168D+02  rms  =  2.39499D-02
          iter =    23  omega = -1.33139D-03  absolute =  2.14491D+00  rms  =  2.32162D-02
          iter =    24  omega = -3.31284D+00  absolute =  5.61262D+00  rms  =  2.35039D-02
          iter =    25  omega =  1.64472D+00  absolute =  1.61339D+01  rms  =  2.69670D-02
          iter =    26  omega =  2.93662D-01  absolute =  6.20733D+00  rms  =  2.79251D-02
          iter =    27  omega = -1.91960D-02  absolute =  4.72027D-01  rms  =  2.79650D-02
          iter =    28  omega = -6.74435D-01  absolute =  5.02895D+01  rms  =  9.01305D-02
          iter =    29  omega = -4.31906D+02  absolute =  3.20762D+02  rms  =  3.44887D-02
          iter =    30  omega = -5.62460D+00  absolute =  4.21618D+02  rms  =  3.21483D-02
          iter =    31  omega =  3.24653D-01  absolute =  2.35919D+02  rms  =  3.24041D-02
          iter =    32  omega =  3.02371D+00  absolute =  1.07797D+03  rms  =  2.78382D-02
          iter =    33  omega = -1.59342D+00  absolute =  6.62419D+02  rms  =  2.75405D-02
          iter =    34  omega = -2.79429D+00  absolute =  5.60803D+04  rms  =  4.76910D-02
          iter =    35  omega = -2.22528D+01  absolute =  7.03249D+04  rms  =  3.21600D-02
          iter =    36  omega =  1.38620D+00  absolute =  1.13776D+05  rms  =  3.50123D-02
          iter =    37  omega =  3.92971D+00  absolute =  2.24425D+05  rms  =  3.90795D-02
          iter =    38  omega = -3.60114D-01  absolute =  1.43495D+05  rms  =  4.73358D-02
          iter =    39  omega = -2.03787D+00  absolute =  1.64699D+05  rms  =  4.33679D-02
          iter =    40  omega = -6.36973D-01  absolute =  6.86604D+06  rms  =  3.61559D-02
          iter =    41  omega =  4.07105D+01  absolute =  4.27091D+06  rms  =  3.44205D-02
          iter =    42  omega = -7.25835D-01  absolute =  3.30739D+06  rms  =  3.25155D-02
          iter =    43  omega = -2.75426D-02  absolute =  8.53818D+04  rms  =  3.24937D-02
          iter =    44  omega = -1.41879D+00  absolute =  3.40523D+05  rms  =  4.24752D-02
          iter =    45  omega =  1.73195D+00  absolute =  2.09806D+05  rms  =  4.19603D-02
          iter =    46  omega = -1.38781D-01  absolute =  2.91176D+04  rms  =  4.07804D-02
          iter =    47  omega = -8.84514D-01  absolute =  9.81517D+05  rms  =  4.29036D-02
          iter =    48  omega =  1.26724D+02  absolute =  3.80783D+07  rms  =  4.33369D-02
          iter =    49  omega =  2.16992D+01  absolute =  7.08199D+07  rms  =  4.34008D-02
          iter =    50  omega =  2.15922D-01  absolute =  1.27267D+08  rms  =  4.28558D-02
          iter =    51  omega = -2.72976D+00  absolute =  4.69938D+07  rms  =  4.25756D-02
          iter =    52  omega =  8.62044D-02  absolute =  4.43722D+07  rms  =  4.31571D-02
          iter =    53  omega = -1.33819D+03  absolute =  4.81530D+09  rms  =  4.30985D-02
          iter =    54  omega =  3.93657D-04  absolute =  1.82291D+07  rms  =  4.31609D-02
          iter =    55  omega = -1.59649D+01  absolute =  7.39509D+07  rms  =  4.24685D-02
          iter =    56  omega = -4.34068D-01  absolute =  8.26221D+07  rms  =  4.34085D-02
          iter =    57  omega = -1.49979D+01  absolute =  1.97014D+08  rms  =  4.38538D-02
          iter =    58  omega =  8.76014D-02  absolute =  3.62376D+08  rms  =  4.42126D-02
          iter =    59  omega = -1.87474D+01  absolute =  5.61075D+09  rms  =  4.33270D-02
          iter =    60  omega =  5.17320D+00  absolute =  3.98442D+09  rms  =  4.27932D-02
          iter =    61  omega = -2.97508D-01  absolute =  4.97975D+08  rms  =  4.26652D-02
          iter =    62  omega = -1.07696D+00  absolute =  4.06853D+09  rms  =  4.29041D-02
          iter =    63  omega = -1.16733D+01  absolute =  1.67774D+11  rms  =  4.26073D-02
          iter =    64  omega = -2.82987D+02  absolute =  1.77161D+12  rms  =  2.87614D-02
          iter =    65  omega =  3.56287D-03  absolute =  8.34073D+10  rms  =  3.58395D-02
          iter =    66  omega =  9.64172D+01  absolute =  6.08588D+11  rms  =  2.84514D-02
          iter =    67  omega = -1.31309D-02  absolute =  1.25147D+11  rms  =  3.57889D-02
          iter =    68  omega =  6.04370D+00  absolute =  4.82970D+10  rms  =  3.75557D-02
          iter =    69  omega = -1.85235D-01  absolute =  4.91412D+10  rms  =  4.71237D-02
          iter =    70  omega = -1.20461D+00  absolute =  1.07768D+10  rms  =  4.08385D-02
          iter =    71  omega = -3.22442D-01  absolute =  9.70321D+09  rms  =  3.39277D-02
          iter =    72  omega = -2.22395D+00  absolute =  4.12021D+10  rms  =  7.12747D-02
          iter =    73  omega =  4.11525D+00  absolute =  4.15998D+10  rms  =  3.25325D-02
          iter =    74  omega = -7.94613D-01  absolute =  5.84305D+10  rms  =  4.71761D-02
          iter =    75  omega = -1.52102D-01  absolute =  3.84375D+09  rms  =  4.19044D-02
          iter =    76  omega = -8.47784D-01  absolute =  1.28815D+10  rms  =  3.67955D-02
          iter =    77  omega = -1.03562D+00  absolute =  5.57411D+10  rms  =  8.25841D-02
          iter =    78  omega =  2.99402D+01  absolute =  1.47761D+11  rms  =  4.87719D-02
          iter =    79  omega = -1.69768D-01  absolute =  6.92174D+10  rms  =  5.07485D-02
          iter =    80  omega = -9.18291D+00  absolute =  2.38495D+11  rms  =  3.31437D-02
          iter =    81  omega =  1.14565D-01  absolute =  1.74224D+11  rms  =  1.19571D-01
          iter =    82  omega = -1.49567D+01  absolute =  2.69910D+11  rms  =  3.45061D-02
          iter =    83  omega = -5.31391D-02  absolute =  5.43666D+10  rms  =  3.81312D-02
          iter =    84  omega =  4.46823D+00  absolute =  2.60163D+11  rms  =  2.79924D-02
          iter =    85  omega =  9.29121D-01  absolute =  4.91033D+11  rms  =  6.80634D-02
          iter =    86  omega = -2.31845D+00  absolute =  3.43802D+11  rms  =  3.21088D-02
          iter =    87  omega = -2.69375D+00  absolute =  3.71874D+11  rms  =  2.96319D-02
          iter =    88  omega = -6.50322D-02  absolute =  8.13089D+10  rms  =  3.85636D-02
          iter =    89  omega = -4.91686D-01  absolute =  1.18908D+10  rms  =  3.39617D-02
          iter =    90  omega =  2.60553D-01  absolute =  3.09819D+09  rms  =  3.23133D-02
          iter =    91  omega = -3.49929D+01  absolute =  1.08415D+11  rms  =  7.87790D-02
          iter =    92  omega = -2.95113D-01  absolute =  6.31292D+10  rms  =  2.40593D-02
          iter =    93  omega = -8.00218D-01  absolute =  2.16126D+11  rms  =  2.39023D-02
          iter =    94  omega = -5.54137D+00  absolute =  6.20128D+11  rms  =  2.33937D-02
          iter =    95  omega = -1.80688D+00  absolute =  2.56348D+11  rms  =  2.32887D-02
          iter =    96  omega = -2.03753D-01  absolute =  9.82900D+11  rms  =  2.74564D-02
          iter =    97  omega =  7.00234D+00  absolute =  3.65743D+11  rms  =  2.59918D-02
          iter =    98  omega = -2.01768D+01  absolute =  7.37953D+12  rms  =  2.41675D-02
          iter =    99  omega =  5.06950D-02  absolute =  3.97933D+11  rms  =  3.12002D-02
          iter =   100  omega = -1.47969D+00  absolute =  1.07417D+12  rms  =  3.18274D-02
          iter =   101  omega = -3.16101D+00  absolute =  1.74980D+12  rms  =  3.03411D-02
          iter =   102  omega =  2.41109D-01  absolute =  4.21893D+11  rms  =  3.03713D-02
          iter =   103  omega = -4.68300D-01  absolute =  1.97573D+11  rms  =  3.03185D-02
          iter =   104  omega = -1.22280D+00  absolute =  2.41592D+11  rms  =  3.03705D-02
          iter =   105  omega = -1.98674D+01  absolute =  4.79979D+12  rms  =  2.95761D-02
          iter =   106  omega = -3.69224D-02  absolute =  1.77220D+11  rms  =  2.87770D-02
          iter =   107  omega = -7.29859D-01  absolute =  5.11647D+11  rms  =  2.94162D-02
          iter =   108  omega = -7.95696D-01  absolute =  4.96784D+11  rms  =  5.03103D-02
          iter =   109  omega = -2.37975D+02  absolute =  2.44923D+13  rms  =  4.05719D-02
          iter =   110  omega =  3.60637D-03  absolute =  2.33081D+12  rms  =  1.86341D-01
          iter =   111  omega =  2.25671D+01  absolute =  1.37776D+13  rms  =  3.18627D-02
          iter =   112  omega = -3.10228D+01  absolute =  6.18384D+13  rms  =  3.87912D-02
          iter =   113  omega =  1.42697D-02  absolute =  8.82418D+11  rms  =  3.30199D-02
          iter =   114  omega =  2.17407D-01  absolute =  2.45599D+11  rms  =  4.60472D-02
          iter =   115  omega =  2.28816D-01  absolute =  1.34784D+11  rms  =  4.51798D-02
          iter =   116  omega =  3.84071D-01  absolute =  1.68596D+10  rms  =  4.51538D-02
          iter =   117  omega = -5.63694D-01  absolute =  1.29810D+11  rms  =  4.47631D-02
          iter =   118  omega =  6.42020D+01  absolute =  6.10153D+11  rms  =  4.31699D-02
          iter =   119  omega =  3.38390D-01  absolute =  6.21348D+11  rms  =  4.57545D-02
          iter =   120  omega = -1.31293D-01  absolute =  2.71080D+10  rms  =  4.41550D-02
          iter =   121  omega = -1.45541D+00  absolute =  3.97913D+12  rms  =  4.60413D-02
          iter =   122  omega = -2.10828D+02  absolute =  8.31784D+12  rms  =  4.21531D-02
          iter =   123  omega =  5.49939D-02  absolute =  4.57431D+11  rms  =  4.17299D-02
          iter =   124  omega =  7.89254D-02  absolute =  5.22869D+10  rms  =  4.36165D-02
          iter =   125  omega =  5.91802D-01  absolute =  5.74939D+11  rms  =  4.41889D-02
          iter =   126  omega =  2.80232D+03  absolute =  5.98738D+13  rms  =  4.96758D-02
          iter =   127  omega = -5.83716D-03  absolute =  3.49493D+11  rms  =  4.89949D-02
          iter =   128  omega = -1.26741D+00  absolute =  1.18621D+13  rms  =  3.76563D-02
          iter =   129  omega =  2.27631D+01  absolute =  1.00829D+13  rms  =  3.73093D-02
          iter =   130  omega =  1.48638D-01  absolute =  1.49871D+12  rms  =  3.00019D-02
          iter =   131  omega = -3.84461D-01  absolute =  5.45315D+12  rms  =  3.15791D-02
          iter =   132  omega =  1.95037D+01  absolute =  1.12379D+13  rms  =  3.06030D-02
          iter =   133  omega =  6.86763D-01  absolute =  7.71781D+12  rms  =  3.43268D-02
          iter =   134  omega =  2.16461D-01  absolute =  1.67061D+12  rms  =  3.41486D-02
          iter =   135  omega =  1.55817D-01  absolute =  2.60310D+11  rms  =  3.37550D-02
          iter =   136  omega = -1.23062D+00  absolute =  3.78984D+11  rms  =  3.76401D-02
          iter =   137  omega =  1.00589D+00  absolute =  7.71591D+12  rms  =  1.16262D-01
          iter =   138  omega = -2.78072D+03  absolute =  8.96022D+14  rms  =  6.97662D-02
          iter =   139  omega = -1.49099D-02  absolute =  1.33596D+13  rms  =  6.26459D-02
          iter =   140  omega =  7.05789D-01  absolute =  4.10881D+13  rms  =  3.21562D-02
          iter =   141  omega =  4.61655D+00  absolute =  4.35296D+13  rms  =  4.17034D-02
          iter =   142  omega = -3.51853D-01  absolute =  1.95796D+13  rms  =  4.24648D-02
          iter =   143  omega =  6.93421D-01  absolute =  4.39901D+15  rms  =  4.24634D-01
          iter =   144  omega = -2.27011D+04  absolute =  2.41097D+17  rms  =  1.80821D-01
          iter =   145  omega =  4.79820D-03  absolute =  7.57966D+16  rms  =  9.09987D+00
          iter =   146  omega = -1.91383D+03  absolute =  2.21398D+18  rms  =  1.21545D+01
          iter =   147  omega = -9.23666D-02  absolute =  4.41758D+17  rms  =  2.71071D+01
          iter =   148  omega = -4.72379D+00  absolute =  9.66004D+17  rms  =  1.59366D+01
          iter =   149  omega = -4.30841D-02  absolute =  7.13903D+16  rms  =  1.92005D+01
          iter =   150  omega = -1.64128D+00  absolute =  7.83393D+16  rms  =  1.24935D+01
          iter =   151  omega = -8.80462D-01  absolute =  6.01434D+16  rms  =  1.23882D+01
          iter =   152  omega = -8.51797D-01  absolute =  5.97118D+16  rms  =  1.26749D+01
          iter =   153  omega = -1.05343D+00  absolute =  3.62471D+17  rms  =  1.03437D+01
          iter =   154  omega =  9.85156D+01  absolute =  2.05283D+19  rms  =  4.20568D+03
          iter =   155  omega = -1.33936D+01  absolute =  7.12090D+19  rms  =  4.46180D+03
          iter =   156  omega =  5.40800D-02  absolute =  3.85099D+18  rms  =  4.40224D+03
          iter =   157  omega = -2.41014D-01  absolute =  9.28140D+17  rms  =  4.39670D+03
          iter =   158  omega = -5.98324D-01  absolute =  1.16184D+19  rms  =  5.32119D+03
          iter =   159  omega = -2.83208D+01  absolute =  2.87464D+19  rms  =  3.27928D+03
          iter =   160  omega =  6.12720D-01  absolute =  9.63646D+18  rms  =  3.70148D+03
          iter =   161  omega =  4.87000D-01  absolute =  5.64373D+20  rms  =  1.27280D+05
          iter =   162  omega =  4.02496D+03  absolute =  1.88890D+22  rms  =  8.18044D+04
          iter =   163  omega = -5.53238D-02  absolute =  1.04501D+21  rms  =  5.04870D+04
          iter =   164  omega = -1.98901D-01  absolute =  2.07853D+20  rms  =  3.70985D+04
          iter =   165  omega =  4.86196D-01  absolute =  1.54563D+20  rms  =  3.13827D+04
          iter =   166  omega = -1.56080D+00  absolute =  2.36045D+20  rms  =  2.35428D+04
          iter =   167  omega = -1.12660D+00  absolute =  3.21248D+21  rms  =  2.87373D+05
          iter =   168  omega =  2.54144D+02  absolute =  4.51611D+22  rms  =  2.94741D+05
          iter =   169  omega = -1.11354D-03  absolute =  7.39146D+19  rms  =  2.62792D+05
          iter =   170  omega = -5.41875D-01  absolute =  2.72501D+19  rms  =  2.60654D+05
          iter =   171  omega = -1.31671D+00  absolute =  2.11667D+20  rms  =  2.46654D+05
          iter =   172  omega =  2.24577D+01  absolute =  8.05794D+20  rms  =  2.48794D+05
          iter =   173  omega = -6.50729D-02  absolute =  2.00839D+20  rms  =  2.78652D+05
          iter =   174  omega = -1.75964D-01  absolute =  2.43466D+19  rms  =  2.75013D+05
          iter =   175  omega =  2.02605D+03  absolute =  1.86938D+22  rms  =  2.12902D+05
          iter =   176  omega =  4.79449D-02  absolute =  1.17532D+21  rms  =  9.62079D+04
          iter =   177  omega =  5.78400D-01  absolute =  1.01098D+21  rms  =  1.09615D+05
          iter =   178  omega = -3.45655D+00  absolute =  1.70764D+22  rms  =  2.32368D+06
          iter =   179  omega =  9.01682D+01  absolute =  1.61571D+23  rms  =  4.23079D+06
          iter =   180  omega =  3.45984D-01  absolute =  5.59010D+22  rms  =  3.20928D+06
          iter =   181  omega = -1.41532D-01  absolute =  7.91178D+21  rms  =  3.45332D+06
          iter =   182  omega = -8.15737D+00  absolute =  1.72365D+23  rms  =  1.11594D+07
          iter =   183  omega = -2.19937D+00  absolute =  1.41946D+23  rms  =  1.04366D+07
          iter =   184  omega =  2.43297D-01  absolute =  3.75915D+22  rms  =  1.19748D+07
          iter =   185  omega = -1.70184D+00  absolute =  5.87732D+22  rms  =  1.20008D+07
          iter =   186  omega = -6.08284D-01  absolute =  6.49888D+22  rms  =  1.44969D+07
          iter =   187  omega =  1.17553D+00  absolute =  1.18024D+23  rms  =  2.08933D+07
          iter =   188  omega = -5.63684D+00  absolute =  2.36895D+23  rms  =  2.83207D+07
          iter =   189  omega =  2.98125D+00  absolute =  3.56374D+24  rms  =  2.82125D+08
          iter =   190  omega =  1.11039D+01  absolute =  8.61117D+25  rms  =  1.23985D+10
          iter =   191  omega =  2.17726D+02  absolute =  1.70741D+27  rms  =  1.48249D+10
          iter =   192  omega =  2.86401D-02  absolute =  4.89004D+25  rms  =  1.26905D+10
          iter =   193  omega = -2.36138D-01  absolute =  9.29744D+25  rms  =  2.02189D+10
          iter =   194  omega = -9.17054D+00  absolute =  2.91122D+26  rms  =  1.97151D+10
          iter =   195  omega =  6.93490D+00  absolute =  7.34368D+26  rms  =  1.49734D+10
          iter =   196  omega = -2.19981D-01  absolute =  3.66815D+26  rms  =  2.79561D+10
          iter =   197  omega = -1.62801D+00  absolute =  2.63001D+26  rms  =  2.77692D+10
          iter =   198  omega = -6.46633D-01  absolute =  1.70065D+26  rms  =  2.03580D+10
          iter =   199  omega =  5.62231D-01  absolute =  1.33178D+26  rms  =  1.75840D+10
          iter =   200  omega =  8.84849D-01  absolute =  1.99687D+28  rms  =  6.71631D+11
        3              200                                                                        0.196826E+29           1     1     1  lay row col
        4                             2            20          0.606735E+61      357.075    
          iter =     0  omega =  8.11052D+51  absolute =  6.28219D+23  rms  =  7.57868D+23
          iter =     1  omega = -2.04947D-03  absolute =  1.48024D+22  rms  =  1.40587D+23
          iter =     2  omega =  1.45181D-01  absolute =  3.43177D+21  rms  =  5.16704D+22
          iter =     3  omega =  5.14378D-01  absolute =  1.68861D+21  rms  =  2.49136D+22
          iter =     4  omega =  4.50159D-01  absolute =  2.60200D+21  rms  =  1.53979D+22
          iter =     5  omega = -2.14834D+00  absolute =  1.04844D+21  rms  =  9.84991D+21
        4                7                                                                       -0.646698E+24           1     1     1  lay row col
        5                             0             0          0.307546E+51     0.307546E+51
          iter =     0  omega =  3.07546D+50  absolute =  1.19320D+23  rms  =  1.44189D+23
          iter =     1  omega = -1.93070D-03  absolute =  2.86234D+21  rms  =  2.73789D+22
          iter =     2  omega =  1.43275D-01  absolute =  7.72896D+20  rms  =  1.15215D+22
          iter =     3  omega =  4.62952D-01  absolute =  2.18906D+20  rms  =  7.29182D+21
          iter =     4  omega =  8.15521D-01  absolute =  1.37082D+21  rms  =  1.42670D+22
          iter =     5  omega = -4.25171D+01  absolute =  3.70683D+21  rms  =  4.20476D+21
          iter =     6  omega = -8.90488D-03  absolute =  2.21928D+20  rms  =  2.63689D+21
        5                8                                                                       -0.123352E+24           1     1     1  lay row col
        6                             0             0          0.379122E+49     0.379122E+49
          iter =     0  omega =  3.79122D+48  absolute =  1.07293D+22  rms  =  1.34036D+22
          iter =     1  omega = -1.11564D-03  absolute =  2.85662D+20  rms  =  2.98740D+21
          iter =     2  omega =  9.78307D-02  absolute =  8.45020D+19  rms  =  3.99759D+21
          iter =     3  omega = -1.10519D+01  absolute =  1.46778D+20  rms  =  1.45576D+21
          iter =     4  omega = -7.61116D-02  absolute =  3.29520D+19  rms  =  1.26500D+21
          iter =     5  omega =  1.57155D+00  absolute =  5.12211D+19  rms  =  9.47795D+20
          iter =     6  omega =  6.62727D-01  absolute =  5.64660D+19  rms  =  6.65099D+20
          iter =     7  omega =  7.72556D-01  absolute =  4.02274D+19  rms  =  5.74690D+20
          iter =     8  omega =  2.31134D-01  absolute =  2.60602D+18  rms  =  5.74488D+20
          iter =     9  omega = -2.74681D+00  absolute =  3.84063D+19  rms  =  5.13301D+20
          iter =    10  omega = -4.58928D-01  absolute =  1.72668D+19  rms  =  4.86110D+20
          iter =    11  omega =  1.14334D+00  absolute =  2.43936D+19  rms  =  4.71401D+20
          iter =    12  omega =  2.88070D-01  absolute =  1.37773D+18  rms  =  4.67325D+20
          iter =    13  omega = -1.44803D+00  absolute =  3.74243D+19  rms  =  4.02645D+20
          iter =    14  omega = -6.08896D+00  absolute =  3.39258D+19  rms  =  3.44277D+20
          iter =    15  omega =  2.08139D+00  absolute =  6.10073D+19  rms  =  2.46527D+20
        6               17                                                                       -0.115015E+23           1     1     1  lay row col
        7                             0             0          0.305620E+47     0.305620E+47
          iter =     0  omega =  3.05620D+46  absolute =  9.63661D+20  rms  =  1.21253D+21
          iter =     1  omega = -1.12716D-03  absolute =  2.59064D+19  rms  =  2.97310D+20
          iter =     2  omega =  1.04096D-01  absolute =  8.89068D+18  rms  =  3.99557D+20
          iter =     3  omega = -1.24794D+01  absolute =  1.57896D+19  rms  =  1.87887D+20
          iter =     4  omega = -7.44496D-02  absolute =  3.81059D+18  rms  =  1.78770D+20
          iter =     5  omega =  1.79200D+00  absolute =  6.80348D+18  rms  =  1.64144D+20
          iter =     6  omega =  7.69550D-01  absolute =  9.12026D+18  rms  =  1.51655D+20
          iter =     7  omega =  9.70370D-01  absolute =  8.27085D+18  rms  =  1.46746D+20
          iter =     8  omega =  3.53572D-01  absolute =  9.94176D+17  rms  =  1.46838D+20
          iter =     9  omega = -3.43321D+00  absolute =  1.26867D+19  rms  =  1.24790D+20
          iter =    10  omega = -4.58001D-01  absolute =  6.85547D+18  rms  =  1.13084D+20
          iter =    11  omega =  1.44075D+00  absolute =  1.10921D+19  rms  =  1.03933D+20
          iter =    12  omega =  3.57291D-01  absolute =  6.31167D+17  rms  =  1.02517D+20
          iter =    13  omega = -1.56095D+00  absolute =  1.58869D+19  rms  =  7.36044D+19
          iter =    14  omega = -4.03944D+00  absolute =  1.17927D+19  rms  =  5.21058D+19
          iter =    15  omega =  1.64275D+00  absolute =  1.45181D+19  rms  =  2.74379D+19
        7               17                                                                       -0.110056E+22           1     1     1  lay row col
        8                             0             0          0.248062E+45     0.248062E+45
          iter =     0  omega =  2.48062D+44  absolute =  8.64551D+19  rms  =  1.10429D+20
          iter =     1  omega = -1.11997D-03  absolute =  2.35701D+18  rms  =  3.26832D+19
          iter =     2  omega =  1.07933D-01  absolute =  7.84997D+17  rms  =  3.96357D+19
          iter =     3  omega = -1.11164D+01  absolute =  1.46270D+18  rms  =  2.50152D+19
          iter =     4  omega = -9.59031D-02  absolute =  4.52732D+17  rms  =  2.42763D+19
          iter =     5  omega =  1.99078D+00  absolute =  8.99389D+17  rms  =  2.28926D+19
          iter =     6  omega =  8.63226D-01  absolute =  1.35822D+18  rms  =  2.13326D+19
          iter =     7  omega =  1.08141D+00  absolute =  1.33375D+18  rms  =  2.03471D+19
          iter =     8  omega =  3.68491D-01  absolute =  1.55885D+17  rms  =  2.04054D+19
          iter =     9  omega = -3.35339D+00  absolute =  1.99378D+18  rms  =  1.66851D+19
          iter =    10  omega = -4.85540D-01  absolute =  1.16102D+18  rms  =  1.47054D+19
          iter =    11  omega =  1.49908D+00  absolute =  1.95125D+18  rms  =  1.26581D+19
          iter =    12  omega =  3.10886D-01  absolute =  9.37368D+16  rms  =  1.24651D+19
          iter =    13  omega = -1.45895D+00  absolute =  2.50652D+18  rms  =  8.01253D+18
          iter =    14  omega = -4.24446D+00  absolute =  1.59943D+18  rms  =  5.11854D+18
          iter =    15  omega =  1.40282D+00  absolute =  1.67340D+18  rms  =  2.24762D+18
        8               17                                                                       -0.104626E+21           1     1     1  lay row col
        9                             0             0          0.202684E+43     0.202684E+43
          iter =     0  omega =  2.02684D+42  absolute =  7.74736D+18  rms  =  1.00252D+19
          iter =     1  omega = -1.10032D-03  absolute =  2.14212D+17  rms  =  3.33262D+18
          iter =     2  omega =  1.08845D-01  absolute =  6.13344D+16  rms  =  3.72761D+18
          iter =     3  omega = -8.83933D+00  absolute =  1.32013D+17  rms  =  2.72177D+18
          iter =     4  omega = -1.35465D-01  absolute =  4.88297D+16  rms  =  2.65218D+18
          iter =     5  omega =  2.08424D+00  absolute =  9.95409D+16  rms  =  2.51120D+18
          iter =     6  omega =  8.98610D-01  absolute =  1.55143D+17  rms  =  2.32942D+18
          iter =     7  omega =  1.09368D+00  absolute =  1.53646D+17  rms  =  2.19358D+18
          iter =     8  omega =  3.57272D-01  absolute =  1.58125D+16  rms  =  2.20166D+18
          iter =     9  omega = -3.10751D+00  absolute =  2.31672D+17  rms  =  1.78874D+18
          iter =    10  omega = -5.66937D-01  absolute =  1.43005D+17  rms  =  1.54535D+18
          iter =    11  omega =  1.57077D+00  absolute =  2.47408D+17  rms  =  1.25476D+18
          iter =    12  omega =  1.89890D-01  absolute =  7.80353D+15  rms  =  1.22946D+18
          iter =    13  omega = -1.25232D+00  absolute =  2.68006D+17  rms  =  7.58413D+17
          iter =    14  omega = -6.46635D+00  absolute =  1.51376D+17  rms  =  4.81233D+17
          iter =    15  omega =  1.25875D+00  absolute =  1.45885D+17  rms  =  2.24097D+17
        9               17                                                                       -0.968030E+19           1     1     1  lay row col
       10                             0             0          0.164668E+41     0.164668E+41
          iter =     0  omega =  1.64668D+40  absolute =  6.93497D+17  rms  =  9.19384D+17
          iter =     1  omega = -1.08496D-03  absolute =  1.94642D+16  rms  =  3.58984D+17
          iter =     2  omega =  1.10631D-01  absolute =  5.10357D+15  rms  =  3.81767D+17
          iter =     3  omega = -7.52577D+00  absolute =  1.25632D+16  rms  =  3.11657D+17
          iter =     4  omega = -1.80817D-01  absolute =  5.53695D+15  rms  =  3.04165D+17
          iter =     5  omega =  2.23594D+00  absolute =  1.19415D+16  rms  =  2.88013D+17
          iter =     6  omega =  9.68419D-01  absolute =  2.00129D+16  rms  =  2.64324D+17
          iter =     7  omega =  1.14785D+00  absolute =  2.01747D+16  rms  =  2.45060D+17
          iter =     8  omega =  3.28848D-01  absolute =  1.65198D+15  rms  =  2.45859D+17
          iter =     9  omega = -2.81086D+00  absolute =  2.64205D+16  rms  =  1.96268D+17
          iter =    10  omega = -6.23342D-01  absolute =  1.68523D+16  rms  =  1.65874D+17
          iter =    11  omega =  1.56059D+00  absolute =  3.03282D+16  rms  =  1.26940D+17
          iter =    12  omega =  9.81658D-02  absolute =  5.78695D+14  rms  =  1.24337D+17
          iter =    13  omega = -1.11283D+00  absolute =  3.15141D+16  rms  =  7.15606D+16
          iter =    14  omega = -1.36365D+01  absolute =  1.66960D+16  rms  =  4.15917D+16
          iter =    15  omega =  1.15038D+00  absolute =  1.44968D+16  rms  =  1.49669D+16
       10               17                                                                       -0.914030E+18           1     1     1  lay row col
       11                             0             0          0.135701E+39     0.135701E+39
          iter =     0  omega =  1.35701D+38  absolute =  6.20012D+16  rms  =  8.28460D+16
          iter =     1  omega = -1.04729D-03  absolute =  1.76405D+15  rms  =  3.37255D+16
          iter =     2  omega =  1.06217D-01  absolute =  3.43809D+14  rms  =  3.44306D+16
          iter =     3  omega = -5.46198D+00  absolute =  1.06842D+15  rms  =  2.96073D+16
          iter =     4  omega = -2.80040D-01  absolute =  5.44237D+14  rms  =  2.88918D+16
          iter =     5  omega =  2.23164D+00  absolute =  1.13644D+15  rms  =  2.73595D+16
          iter =     6  omega =  9.59800D-01  absolute =  1.85860D+15  rms  =  2.50765D+16
          iter =     7  omega =  1.09823D+00  absolute =  1.85359D+15  rms  =  2.31273D+16
          iter =     8  omega =  3.15346D-01  absolute =  1.30617D+14  rms  =  2.31841D+16
          iter =     9  omega = -2.51627D+00  absolute =  2.47830D+15  rms  =  1.89066D+16
          iter =    10  omega = -8.25625D-01  absolute =  1.80247D+15  rms  =  1.55882D+16
          iter =    11  omega =  1.59911D+00  absolute =  3.17875D+15  rms  =  1.11342D+16
          iter =    12  omega = -1.25275D-01  absolute =  5.14077D+13  rms  =  1.09021D+16
          iter =    13  omega = -8.72878D-01  absolute =  2.66805D+15  rms  =  6.45474D+15
          iter =    14  omega =  1.04004D+01  absolute =  1.34313D+15  rms  =  4.08042D+15
          iter =    15  omega =  1.11050D+00  absolute =  1.15979D+15  rms  =  1.94874D+15
       11               17                                                                       -0.825187E+17           1     1     1  lay row col
       12                             0             0          0.108928E+37     0.108928E+37
          iter =     0  omega =  1.08928D+36  absolute =  5.53749D+15  rms  =  7.67246D+15
          iter =     1  omega = -1.03960D-03  absolute =  1.59166D+14  rms  =  3.63050D+15
          iter =     2  omega =  1.06987D-01  absolute =  3.04646D+13  rms  =  3.67312D+15
          iter =     3  omega = -5.11856D+00  absolute =  1.03752D+14  rms  =  3.30463D+15
          iter =     4  omega = -3.28964D-01  absolute =  5.96727D+13  rms  =  3.22515D+15
          iter =     5  omega =  2.40563D+00  absolute =  1.35052D+14  rms  =  3.04366D+15
          iter =     6  omega =  1.06174D+00  absolute =  2.46758D+14  rms  =  2.73121D+15
          iter =     7  omega =  1.20685D+00  absolute =  2.55668D+14  rms  =  2.44852D+15
          iter =     8  omega =  2.72068D-01  absolute =  1.53693D+13  rms  =  2.45106D+15
          iter =     9  omega = -2.22763D+00  absolute =  2.71851D+14  rms  =  1.94964D+15
          iter =    10  omega = -8.76111D-01  absolute =  1.90206D+14  rms  =  1.58141D+15
          iter =    11  omega =  1.52271D+00  absolute =  3.52157D+14  rms  =  1.07180D+15
          iter =    12  omega = -2.17696D-01  absolute =  9.42005D+12  rms  =  1.05080D+15
          iter =    13  omega = -8.10597D-01  absolute =  3.05702D+14  rms  =  5.53950D+14
          iter =    14  omega =  6.96243D+00  absolute =  1.45577D+14  rms  =  3.04606D+14
       12               16                                                                       -0.778503E+16           1     1     1  lay row col
       13                             0             0          0.906208E+34     0.906208E+34
          iter =     0  omega =  9.06208D+33  absolute =  4.94046D+14  rms  =  7.18761D+14
          iter =     1  omega = -9.88248D-04  absolute =  1.46218D+13  rms  =  3.91443D+14
          iter =     2  omega =  1.02500D-01  absolute =  2.02710D+12  rms  =  3.89358D+14
          iter =     3  omega = -3.64479D+00  absolute =  1.00243D+13  rms  =  3.63888D+14
          iter =     4  omega = -5.93918D-01  absolute =  7.19730D+12  rms  =  3.54035D+14
          iter =     5  omega =  2.51762D+00  absolute =  1.60641D+13  rms  =  3.32009D+14
          iter =     6  omega =  1.06523D+00  absolute =  2.80941D+13  rms  =  2.94628D+14
          iter =     7  omega =  1.07415D+00  absolute =  2.65811D+13  rms  =  2.61681D+14
          iter =     8  omega =  2.16602D-01  absolute =  1.36051D+12  rms  =  2.61346D+14
          iter =     9  omega = -1.84848D+00  absolute =  2.66441D+13  rms  =  2.16574D+14
          iter =    10  omega = -1.52128D+00  absolute =  2.61351D+13  rms  =  1.68143D+14
          iter =    11  omega =  1.75014D+00  absolute =  5.00910D+13  rms  =  8.83734D+13
          iter =    12  omega = -6.31525D-01  absolute =  3.95956D+12  rms  =  8.81673D+13
          iter =    13  omega = -5.37839D-01  absolute =  2.61807D+13  rms  =  4.38506D+13
          iter =    14  omega =  1.83480D+00  absolute =  9.31969D+12  rms  =  2.79458D+13
          iter =    15  omega =  8.49030D-01  absolute =  7.24277D+12  rms  =  1.52572D+13
       13               17                                                                       -0.739707E+15           1     1     1  lay row col
       14                             0             0          0.766244E+32     0.766244E+32
          iter =     0  omega =  7.66244D+31  absolute =  4.40251D+13  rms  =  6.74536D+13
          iter =     1  omega = -9.11027D-04  absolute =  1.33695D+12  rms  =  4.06786D+13
          iter =     2  omega =  8.07408D-02  absolute =  1.30973D+11  rms  =  4.01097D+13
          iter =     3  omega = -2.33728D+00  absolute =  8.86418D+11  rms  =  3.82996D+13
          iter =     4  omega = -1.24319D+00  absolute =  7.54458D+11  rms  =  3.72422D+13
          iter =     5  omega =  2.61647D+00  absolute =  1.76398D+12  rms  =  3.47120D+13
          iter =     6  omega =  1.21414D+00  absolute =  3.63432D+12  rms  =  2.93976D+13
          iter =     7  omega =  1.26850D+00  absolute =  3.96729D+12  rms  =  2.37877D+13
          iter =     8  omega =  9.95216D-02  absolute =  1.06144D+11  rms  =  2.36171D+13
          iter =     9  omega = -1.26529D+00  absolute =  2.78970D+12  rms  =  1.90810D+13
          iter =    10  omega = -3.95645D+00  absolute =  2.58103D+12  rms  =  1.46689D+13
          iter =    11  omega =  1.41206D+00  absolute =  4.62814D+12  rms  =  7.00001D+12
          iter =    12  omega = -1.32762D+00  absolute =  7.60330D+11  rms  =  7.41281D+12
          iter =    13  omega = -3.36342D-01  absolute =  2.06145D+12  rms  =  3.86844D+12
          iter =    14  omega =  1.26590D+00  absolute =  7.85708D+11  rms  =  2.50517D+12
          iter =    15  omega =  8.53389D-01  absolute =  6.12488D+11  rms  =  1.39665D+12
       14               17                                                                       -0.696447E+14           1     1     1  lay row col
       15                             0             0          0.652308E+30     0.652308E+30
          iter =     0  omega =  6.52308D+29  absolute =  3.91861D+12  rms  =  6.32286D+12
          iter =     1  omega = -8.27958D-04  absolute =  1.22565D+11  rms  =  4.11617D+12
          iter =     2  omega =  4.81711D-02  absolute =  1.13227D+10  rms  =  4.04599D+12
          iter =     3  omega = -1.52308D+00  absolute =  7.87903D+10  rms  =  3.89885D+12
          iter =     4  omega = -3.27211D+00  absolute =  7.56871D+10  rms  =  3.78506D+12
          iter =     5  omega =  2.67913D+00  absolute =  1.83293D+11  rms  =  3.50486D+12
          iter =     6  omega =  1.37077D+00  absolute =  4.53381D+11  rms  =  2.79362D+12
          iter =     7  omega =  1.57853D+00  absolute =  6.34344D+11  rms  =  1.81563D+12
          iter =     8  omega = -9.47782D-02  absolute =  1.66127D+10  rms  =  1.78933D+12
          iter =     9  omega = -8.52646D-01  absolute =  3.81656D+11  rms  =  1.16766D+12
          iter =    10  omega =  5.83134D+00  absolute =  2.68435D+11  rms  =  7.26681D+11
          iter =    11  omega =  9.23117D-01  absolute =  3.38052D+11  rms  =  1.68973D+11
          iter =    12  omega = -2.11468D+00  absolute =  1.01057D+11  rms  =  2.45421D+11
          iter =    13  omega = -1.60044D-01  absolute =  8.03007D+10  rms  =  1.09074D+11
       15               15                                                                       -0.648984E+13           1     1     1  lay row col
       16                             0             0          0.554189E+28     0.554189E+28
          iter =     0  omega =  5.54189D+27  absolute =  3.48423D+11  rms  =  6.02429D+11
          iter =     1  omega = -7.49084D-04  absolute =  1.12847D+10  rms  =  4.24009D+11
          iter =     2  omega =  4.52063D-03  absolute =  1.05072D+09  rms  =  4.16910D+11
          iter =     3  omega = -1.03370D+00  absolute =  7.32358D+09  rms  =  4.03900D+11
          iter =     4  omega = -5.21570D+01  absolute =  7.87242D+09  rms  =  3.91333D+11
          iter =     5  omega =  2.83981D+00  absolute =  2.09272D+10  rms  =  3.57927D+11
          iter =     6  omega =  1.67021D+00  absolute =  7.32420D+10  rms  =  2.40288D+11
          iter =     7  omega =  2.47457D+00  absolute =  1.75716D+11  rms  =  1.02214D+11
          iter =     8  omega = -9.69219D-01  absolute =  2.04548D+10  rms  =  8.04772D+10
          iter =     9  omega = -4.15215D-01  absolute =  6.39554D+10  rms  =  1.53443D+11
          iter =    10  omega =  3.92598D-01  absolute =  6.36199D+09  rms  =  1.57492D+11
          iter =    11  omega = -2.16813D-01  absolute =  8.35281D+09  rms  =  1.74786D+11
          iter =    12  omega =  8.92795D+00  absolute =  7.12060D+09  rms  =  1.63784D+11
          iter =    13  omega = -2.40983D-01  absolute =  1.71377D+11  rms  =  4.62359D+11
          iter =    14  omega =  1.21589D+02  absolute =  3.54783D+11  rms  =  1.60586D+11
          iter =    15  omega =  3.97070D-01  absolute =  7.63488D+10  rms  =  3.41172D+10
          iter =    16  omega =  8.56555D-02  absolute =  1.42161D+10  rms  =  9.04783D+09
       16               18                                                                       -0.614680E+12           1     1     1  lay row col
       17                             0             0          0.486018E+26     0.486018E+26
          iter =     0  omega =  4.86018D+25  absolute =  3.09399D+10  rms  =  5.51631D+10
          iter =     1  omega = -6.46682D-04  absolute =  1.05818D+09  rms  =  3.99312D+10
          iter =     2  omega = -8.24363D-02  absolute =  1.18179D+08  rms  =  3.91188D+10
          iter =     3  omega = -6.30206D-01  absolute =  6.27284D+08  rms  =  3.80151D+10
          iter =     4  omega =  4.81944D+00  absolute =  7.51310D+08  rms  =  3.67690D+10
          iter =     5  omega =  2.87086D+00  absolute =  2.06183D+09  rms  =  3.34043D+10
          iter =     6  omega =  1.82976D+00  absolute =  8.64243D+09  rms  =  2.01570D+10
          iter =     7  omega =  3.26085D+00  absolute =  4.15600D+10  rms  =  6.04229D+10
          iter =     8  omega = -5.87077D+00  absolute =  1.66075D+10  rms  =  4.30055D+10
          iter =     9  omega = -1.78382D-01  absolute =  1.44556D+10  rms  =  6.31574D+10
          iter =    10  omega = -8.74200D-03  absolute =  1.20708D+08  rms  =  6.21184D+10
          iter =    11  omega = -1.02431D+00  absolute =  5.55603D+10  rms  =  3.77974D+10
          iter =    12  omega = -4.66556D+03  absolute =  1.73375D+11  rms  =  2.57626D+11
          iter =    13  omega = -9.35011D-01  absolute =  1.65366D+11  rms  =  2.60795D+10
          iter =    14  omega =  5.45502D-02  absolute =  1.04284D+10  rms  =  8.57765D+09
          iter =    15  omega =  3.24083D-01  absolute =  3.15763D+09  rms  =  3.27582D+09
          iter =    16  omega =  2.60014D-01  absolute =  1.32117D+09  rms  =  1.06307D+09
       17               18                                                                       -0.558358E+11           1     1     1  lay row col
       18                             0             0          0.399099E+24     0.399099E+24
          iter =     0  omega =  3.99099D+23  absolute =  2.74435D+09  rms  =  5.05314D+09
          iter =     1  omega = -6.06263D-04  absolute =  9.63445D+07  rms  =  3.75746D+09
          iter =     2  omega = -1.34076D-01  absolute =  1.14981D+07  rms  =  3.68037D+09
          iter =     3  omega = -5.10092D-01  absolute =  5.55650D+07  rms  =  3.58160D+09
          iter =     4  omega =  3.64615D+00  absolute =  7.05994D+07  rms  =  3.46122D+09
          iter =     5  omega =  2.95848D+00  absolute =  2.06133D+08  rms  =  3.11913D+09
          iter =     6  omega =  2.04305D+00  absolute =  1.17519D+09  rms  =  1.62271D+09
          iter =     7  omega =  5.24907D+00  absolute =  3.48740D+10  rms  =  6.61708D+10
          iter =     8  omega = -1.95793D+02  absolute =  9.35407D+10  rms  =  8.03226D+10
          iter =     9  omega = -2.84364D-01  absolute =  2.00417D+11  rms  =  2.65901D+11
          iter =    10  omega = -3.44971D+00  absolute =  1.21774D+11  rms  =  5.78953D+10
          iter =    11  omega = -1.63615D-01  absolute =  3.39679D+10  rms  =  3.06116D+08
          iter =    12  omega = -2.46656D-01  absolute =  3.59905D+09  rms  =  3.53152D+09
          iter =    13  omega = -1.20430D-01  absolute =  1.45151D+09  rms  =  1.12646D+09
          iter =    14  omega =  3.79728D-01  absolute =  3.67817D+08  rms  =  5.17341D+08
          iter =    15  omega =  6.08003D-01  absolute =  1.76455D+08  rms  =  2.28535D+08
          iter =    16  omega =  3.53964D-01  absolute =  9.38279D+07  rms  =  7.92118D+07
       18               18                                                                       -0.508550E+10           1     1     1  lay row col
       19                             0             0          0.329595E+22     0.329595E+22
          iter =     0  omega =  3.29595D+21  absolute =  2.43098D+08  rms  =  4.54826D+08
          iter =     1  omega = -5.61621D-04  absolute =  8.79569D+06  rms  =  3.42659D+08
          iter =     2  omega = -2.08230D-01  absolute =  1.07851D+06  rms  =  3.35024D+08
          iter =     3  omega = -4.01981D-01  absolute =  4.76491D+06  rms  =  3.26551D+08
          iter =     4  omega =  3.03157D+00  absolute =  6.55414D+06  rms  =  3.15312D+08
          iter =     5  omega =  3.08512D+00  absolute =  2.04963D+07  rms  =  2.80891D+08
          iter =     6  omega =  2.29650D+00  absolute =  1.73669D+08  rms  =  1.72990D+08
          iter =     7  omega =  9.64386D+00  absolute =  6.54022D+08  rms  =  1.16593D+09
          iter =     8  omega = -2.57222D+00  absolute =  2.45198D+08  rms  =  1.47275D+09
          iter =     9  omega = -9.53700D-02  absolute =  2.36016D+07  rms  =  1.37906D+09
          iter =    10  omega = -6.87595D-01  absolute =  3.66921D+08  rms  =  7.85929D+08
          iter =    11  omega = -5.83839D+00  absolute =  5.84697D+08  rms  =  1.76077D+08
          iter =    12  omega = -4.24258D+00  absolute =  3.64440D+08  rms  =  1.19875D+08
          iter =    13  omega = -3.82035D-02  absolute =  4.51811D+07  rms  =  4.60726D+07
          iter =    14  omega =  3.87329D-01  absolute =  1.26146D+07  rms  =  2.55290D+07
          iter =    15  omega =  6.81295D-01  absolute =  7.38651D+06  rms  =  1.35054D+07
       19               17                                                                       -0.453837E+09           1     1     1  lay row col
       20                             0             0          0.261714E+20     0.261714E+20
          iter =     0  omega =  2.61714D+19  absolute =  2.15203D+07  rms  =  4.33870D+07
          iter =     1  omega = -5.47289D-04  absolute =  7.94200D+05  rms  =  3.43082D+07
          iter =     2  omega = -2.36619D-01  absolute =  1.08299D+05  rms  =  3.36715D+07
          iter =     3  omega = -3.67312D-01  absolute =  4.58673D+05  rms  =  3.28592D+07
          iter =     4  omega =  2.88794D+00  absolute =  6.68176D+05  rms  =  3.17008D+07
          iter =     5  omega =  3.27424D+00  absolute =  2.34335D+06  rms  =  2.77735D+07
          iter =     6  omega =  2.77385D+00  absolute =  1.03444D+08  rms  =  1.80385D+08
          iter =     7  omega =  1.99549D+02  absolute =  2.43352D+08  rms  =  6.64879D+07
          iter =     8  omega = -1.72074D-02  absolute =  7.27522D+06  rms  =  6.40867D+07
          iter =     9  omega =  9.53102D-02  absolute =  5.07540D+05  rms  =  6.31577D+07
          iter =    10  omega = -1.45995D+00  absolute =  1.59603D+07  rms  =  3.89933D+07
          iter =    11  omega =  6.91419D+00  absolute =  3.63493D+07  rms  =  2.23700D+07
          iter =    12  omega = -1.28285D+01  absolute =  4.50824D+07  rms  =  5.80994D+06
          iter =    13  omega = -1.74523D-02  absolute =  2.43017D+06  rms  =  1.81509D+06
          iter =    14  omega =  3.39240D-01  absolute =  5.74400D+05  rms  =  8.67072D+05
       20               16                                                                       -0.427310E+08           1     1     1  lay row col
       21                             0             0          0.231223E+18     0.231223E+18
          iter =     0  omega =  2.31223D+17  absolute =  1.90355D+06  rms  =  4.06510D+06
          iter =     1  omega = -4.61593D-04  absolute =  8.04137D+04  rms  =  3.32156D+06
          iter =     2  omega = -5.33408D-01  absolute =  1.11444D+04  rms  =  3.24075D+06
          iter =     3  omega = -2.24304D-01  absolute =  4.34085D+04  rms  =  3.16423D+06
          iter =     4  omega =  2.49720D+00  absolute =  6.85686D+04  rms  =  3.04855D+06
          iter =     5  omega =  3.13834D+00  absolute =  2.09789D+05  rms  =  2.69983D+06
          iter =     6  omega =  2.24404D+00  absolute =  1.53070D+06  rms  =  1.52594D+06
          iter =     7  omega =  6.68039D+00  absolute =  8.21621D+06  rms  =  1.49106D+07
          iter =     8  omega = -1.34393D+01  absolute =  3.73590D+07  rms  =  7.29463D+07
          iter =     9  omega = -1.08782D+00  absolute =  9.20307D+06  rms  =  5.92077D+07
          iter =    10  omega = -4.34542D-01  absolute =  2.88450D+07  rms  =  1.21465D+07
          iter =    11  omega = -5.82971D-01  absolute =  1.22376D+07  rms  =  8.00954D+06
          iter =    12  omega = -6.09723D+00  absolute =  1.39953D+07  rms  =  9.40730D+05
          iter =    13  omega = -8.08803D-03  absolute =  2.72832D+05  rms  =  4.94849D+05
          iter =    14  omega =  2.00350D-01  absolute =  5.08074D+04  rms  =  4.06665D+05
          iter =    15  omega =  6.89152D-01  absolute =  5.05145D+04  rms  =  3.16288D+05
          iter =    16  omega =  1.74352D+00  absolute =  1.11874D+06  rms  =  2.17934D+06
          iter =    17  omega = -4.18065D+00  absolute =  3.09264D+05  rms  =  2.62911D+06
          iter =    18  omega =  2.37927D+01  absolute =  2.71802D+06  rms  =  2.05441D+06
          iter =    19  omega = -4.64428D-02  absolute =  1.20719D+06  rms  =  6.23270D+04
       21               21                                                                       -0.396372E+07           1     1     1  lay row col
       22                             0             0          0.198122E+16     0.198122E+16
          iter =     0  omega =  1.98122D+15  absolute =  1.68067D+05  rms  =  3.61700D+05
          iter =     1  omega = -3.96954D-04  absolute =  7.98612D+03  rms  =  2.99259D+05
          iter =     2  omega = -1.01092D+00  absolute =  1.18275D+03  rms  =  2.88650D+05
          iter =     3  omega = -1.38930D-01  absolute =  3.72746D+03  rms  =  2.82049D+05
          iter =     4  omega =  2.27985D+00  absolute =  6.26537D+03  rms  =  2.71622D+05
          iter =     5  omega =  3.18816D+00  absolute =  1.93401D+04  rms  =  2.39547D+05
          iter =     6  omega =  2.32603D+00  absolute =  1.69421D+05  rms  =  1.75640D+05
          iter =     7  omega =  8.48014D+00  absolute =  5.01169D+05  rms  =  8.37352D+05
          iter =     8  omega = -5.13735D+00  absolute =  8.18736D+05  rms  =  2.04942D+06
          iter =     9  omega = -7.50433D-02  absolute =  3.21007D+04  rms  =  1.98317D+06
          iter =    10  omega = -8.09503D-01  absolute =  8.27054D+05  rms  =  6.43448D+05
          iter =    11  omega = -3.84768D+00  absolute =  2.61189D+06  rms  =  4.90185D+06
          iter =    12  omega = -3.88017D+02  absolute =  3.42347D+07  rms  =  5.71571D+04
          iter =    13  omega = -2.14035D-04  absolute =  1.65756D+04  rms  =  3.03055D+04
          iter =    14  omega =  1.46246D-01  absolute =  2.77404D+03  rms  =  2.50852D+04
          iter =    15  omega =  4.83256D-01  absolute =  1.66800D+03  rms  =  2.18292D+04
          iter =    16  omega =  2.16110D+00  absolute =  4.62555D+03  rms  =  2.92838D+04
          iter =    17  omega = -5.84531D-01  absolute =  3.04559D+03  rms  =  3.39118D+04
          iter =    18  omega =  8.15019D+00  absolute =  6.24725D+03  rms  =  2.37812D+04
       22               20                                                                        -349696.               1     1     1  lay row col
       23                             0             0          0.154002E+14     0.154002E+14
          iter =     0  omega =  1.54002D+13  absolute =  1.48284D+04  rms  =  3.44474D+04
          iter =     1  omega = -3.93052D-04  absolute =  7.11595D+02  rms  =  2.93511D+04
          iter =     2  omega = -1.02477D+00  absolute =  1.04989D+02  rms  =  2.85123D+04
          iter =     3  omega = -1.32282D-01  absolute =  3.52096D+02  rms  =  2.78902D+04
          iter =     4  omega =  2.22809D+00  absolute =  6.19182D+02  rms  =  2.68606D+04
          iter =     5  omega =  3.34542D+00  absolute =  2.10929D+03  rms  =  2.33880D+04
          iter =     6  omega =  2.72293D+00  absolute =  6.10127D+04  rms  =  9.38309D+04
          iter =     7  omega =  7.25939D+01  absolute =  8.03078D+04  rms  =  5.72892D+04
          iter =     8  omega = -1.45696D-01  absolute =  1.16158D+04  rms  =  6.81076D+04
          iter =     9  omega =  6.21228D-02  absolute =  1.26242D+03  rms  =  6.58755D+04
          iter =    10  omega = -1.70380D+00  absolute =  2.46122D+04  rms  =  2.83181D+04
          iter =    11  omega =  2.78420D+00  absolute =  1.90587D+04  rms  =  5.87144D+04
          iter =    12  omega = -2.30584D+01  absolute =  6.99978D+04  rms  =  1.39883D+03
          iter =    13  omega = -4.70895D-03  absolute =  6.00948D+02  rms  =  1.09346D+03
          iter =    14  omega = -6.40514D-02  absolute =  3.15954D+01  rms  =  9.55332D+02
          iter =    15  omega = -2.00853D+00  absolute =  4.46018D+03  rms  =  8.14889D+03
       23               17                                                                        -32767.6               1     1     1  lay row col
       24                             0             0          0.106195E+12     0.106195E+12
          iter =     0  omega =  1.06195D+11  absolute =  1.30697D+03  rms  =  3.28033D+03
          iter =     1  omega = -4.73005D-04  absolute =  5.36075D+01  rms  =  2.84477D+03
          iter =     2  omega = -4.18294D-01  absolute =  1.05097D+01  rms  =  2.80548D+03
          iter =     3  omega = -2.39954D-01  absolute =  3.39814D+01  rms  =  2.74602D+03
          iter =     4  omega =  2.36558D+00  absolute =  5.69124D+01  rms  =  2.65055D+03
          iter =     5  omega =  3.50190D+00  absolute =  2.36374D+02  rms  =  2.26981D+03
          iter =     6  omega =  3.66761D+00  absolute =  2.29253D+03  rms  =  6.26032D+03
          iter =     7  omega =  5.92076D+00  absolute =  1.08076D+03  rms  =  4.29158D+03
          iter =     8  omega = -1.83002D-01  absolute =  1.82341D+02  rms  =  4.35577D+03
          iter =     9  omega =  2.59637D-01  absolute =  1.94228D+02  rms  =  3.95263D+03
          iter =    10  omega = -2.81494D+00  absolute =  1.32815D+03  rms  =  1.80913D+03
          iter =    11  omega =  2.21091D+00  absolute =  6.15214D+03  rms  =  8.22831D+03
          iter =    12  omega = -1.83194D+02  absolute =  4.00527D+04  rms  =  3.72673D+01
          iter =    13  omega = -9.02198D-04  absolute =  8.75220D+01  rms  =  1.43536D+02
          iter =    14  omega =  1.20252D-01  absolute =  6.59365D+00  rms  =  1.43773D+02
          iter =    15  omega = -1.52523D-01  absolute =  8.68825D-01  rms  =  1.43500D+02
          iter =    16  omega = -1.94571D+00  absolute =  1.07228D+02  rms  =  3.24353D+02
          iter =    17  omega =  6.18090D+01  absolute =  1.52585D+02  rms  =  6.72998D+01
          iter =    18  omega = -8.09128D-01  absolute =  6.44502D+01  rms  =  3.94961D+01
       24               20                                                                        -3076.20               1     1     1  lay row col
       25                             0             0          0.385849E+09     0.385849E+09
          iter =     0  omega =  3.85849D+08  absolute =  1.14556D+02  rms  =  2.69592D+02
          iter =     1  omega = -1.17582D-03  absolute =  4.57067D+00  rms  =  1.84321D+02
          iter =     2  omega =  1.70507D-01  absolute =  9.09312D+00  rms  =  2.90664D+02
          iter =     3  omega = -2.66726D+01  absolute =  1.68436D+01  rms  =  1.31645D+02
          iter =     4  omega = -1.80469D-01  absolute =  1.00566D+01  rms  =  1.63627D+02
          iter =     5  omega =  5.88572D+00  absolute =  3.36465D+02  rms  =  2.10317D+03
          iter =     6  omega =  2.20583D+01  absolute =  2.26929D+02  rms  =  9.24067D+02
          iter =     7  omega = -1.29623D-01  absolute =  1.35565D+02  rms  =  2.43746D+02
          iter =     8  omega = -5.51946D-01  absolute =  8.04009D+01  rms  =  2.14417D+02
          iter =     9  omega = -4.98204D+00  absolute =  7.55038D+01  rms  =  9.22640D+01
          iter =    10  omega = -1.58409D-02  absolute =  3.62393D+00  rms  =  8.93328D+01
          iter =    11  omega =  2.51087D-01  absolute =  2.11173D+00  rms  =  8.37235D+01
          iter =    12  omega =  1.79531D+00  absolute =  2.40665D+01  rms  =  1.36601D+02
          iter =    13  omega = -4.37250D+00  absolute =  3.40529D+00  rms  =  1.30089D+02
          iter =    14  omega = -2.24901D+00  absolute =  2.41590D+01  rms  =  1.43977D+02
          iter =    15  omega = -6.56369D-01  absolute =  8.80586D+00  rms  =  1.28634D+02
          iter =    16  omega = -1.62487D+00  absolute =  9.34669D+01  rms  =  4.62021D+01
          iter =    17  omega = -2.46748D-01  absolute =  1.74737D+00  rms  =  4.86913D+01
          iter =    18  omega = -1.76660D+00  absolute =  2.66186D+01  rms  =  2.27917D+00
       25               20                                                                        -191.754               1     1     1  lay row col
       26                             0             0          0.101137E+08     0.101137E+08
          iter =     0  omega =  1.01137D+07  absolute =  1.65225D+01  rms  =  6.96157D+01
          iter =     1  omega =  1.17296D-03  absolute =  1.95509D+00  rms  =  5.32794D+01
          iter =     2  omega =  5.34146D-01  absolute =  2.32303D+00  rms  =  4.34433D+01
          iter =     3  omega =  7.92231D-01  absolute =  1.32074D+00  rms  =  4.02602D+01
          iter =     4  omega =  4.73824D-01  absolute =  1.20793D+00  rms  =  3.81379D+01
          iter =     5  omega =  6.49704D-01  absolute =  1.39158D+00  rms  =  3.64351D+01
          iter =     6  omega =  7.44548D-01  absolute =  1.67370D+00  rms  =  3.47877D+01
          iter =     7  omega =  1.06477D+00  absolute =  2.42664D+00  rms  =  3.30165D+01
          iter =     8  omega =  1.27805D+00  absolute =  3.97669D+00  rms  =  3.10602D+01
          iter =     9  omega =  1.61842D+00  absolute =  5.47555D+00  rms  =  2.96103D+01
          iter =    10  omega =  1.11514D+00  absolute =  8.17105D+00  rms  =  2.92506D+01
          iter =    11  omega =  2.34180D+00  absolute =  2.56554D+01  rms  =  4.17230D+01
          iter =    12  omega =  2.55663D+00  absolute =  3.05060D+01  rms  =  6.54433D+01
          iter =    13  omega =  5.96925D-01  absolute =  1.20462D+01  rms  =  6.04261D+01
          iter =    14  omega =  5.48033D-02  absolute =  4.50784D-01  rms  =  5.07444D+01
          iter =    15  omega = -7.31230D-01  absolute =  4.88536D+00  rms  =  5.63950D+01
          iter =    16  omega = -1.30882D+01  absolute =  3.62363D+02  rms  =  4.90254D+02
          iter =    17  omega =  6.61771D+02  absolute =  2.05552D+03  rms  =  9.95595D+00
          iter =    18  omega =  1.81016D-03  absolute =  5.32097D+00  rms  =  3.43938D+00
          iter =    19  omega =  1.41417D-01  absolute =  1.24733D+00  rms  =  1.83751D+00
          iter =    20  omega =  5.28079D-01  absolute =  7.87424D-01  rms  =  8.49469D-01
          iter =    21  omega =  4.01554D-01  absolute =  2.13417D-01  rms  =  5.73341D-01
          iter =    22  omega =  1.24030D-01  absolute =  3.63525D-02  rms  =  4.61876D-01
       26               24                                                                        -48.8042               1     1     1  lay row col
       27                             0             0           373013.          373013.    
          iter =     0  omega =  3.73013D+05  absolute =  7.46208D+00  rms  =  1.96490D+01
          iter =     1  omega =  2.08126D-03  absolute =  2.35583D+00  rms  =  1.40405D+01
          iter =     2  omega =  4.68346D-01  absolute =  1.64800D+00  rms  =  1.17589D+01
          iter =     3  omega =  2.99446D-01  absolute =  1.45864D+00  rms  =  1.09617D+01
          iter =     4  omega = -4.16063D-03  absolute =  1.82732D-01  rms  =  1.07554D+01
          iter =     5  omega = -1.02515D+00  absolute =  7.30611D-01  rms  =  1.08479D+01
          iter =     6  omega =  1.25864D+02  absolute =  1.03762D+00  rms  =  1.11764D+01
          iter =     7  omega =  3.16353D+00  absolute =  1.22209D+01  rms  =  1.78897D+01
          iter =     8  omega =  5.26063D+01  absolute =  2.98470D+01  rms  =  4.71635D+00
          iter =     9  omega = -1.91180D-01  absolute =  6.27445D+01  rms  =  3.61546D+01
          iter =    10  omega = -3.91887D+01  absolute =  1.33416D+02  rms  =  8.79319D+00
          iter =    11  omega =  1.44613D-02  absolute =  1.06302D+01  rms  =  1.98651D+00
          iter =    12  omega =  1.40340D+00  absolute =  2.75709D+00  rms  =  6.79452D-01
          iter =    13  omega = -1.07776D-01  absolute =  5.35969D-01  rms  =  6.18866D-01
          iter =    14  omega = -3.20398D-01  absolute =  1.54072D-01  rms  =  4.66842D-01
          iter =    15  omega =  1.06173D+00  absolute =  6.59451D-01  rms  =  1.80040D-01
          iter =    16  omega =  6.28717D-01  absolute =  7.55453D-02  rms  =  1.30367D-01
          iter =    17  omega = -1.57199D-02  absolute =  5.79705D-01  rms  =  1.49727D+00
          iter =    18  omega = -1.82459D+04  absolute =  4.81326D+01  rms  =  8.18348D-02
          iter =    19  omega = -3.34713D-05  absolute =  8.07447D-03  rms  =  8.02239D-02
          iter =    20  omega = -9.52361D-01  absolute =  1.16819D-02  rms  =  9.39003D-02
          iter =    21  omega =  1.07063D+01  absolute =  2.11112D-01  rms  =  1.36783D-01
       27               23                                                                        -23.9238               1    54     3  lay row col
       28                             0             0           28750.8          28750.8    
          iter =     0  omega =  2.87508D+04  absolute =  3.82614D+00  rms  =  7.75746D+00
          iter =     1  omega =  3.35111D-03  absolute =  1.37935D+00  rms  =  4.48430D+00
          iter =     2  omega =  3.22386D-01  absolute =  1.03972D+00  rms  =  3.75408D+00
          iter =     3  omega = -7.49671D-03  absolute =  1.85049D-01  rms  =  3.66287D+00
          iter =     4  omega = -1.03383D+00  absolute =  1.79367D+00  rms  =  4.34657D+00
          iter =     5  omega =  5.60327D+02  absolute =  3.92327D+02  rms  =  1.61849D+02
          iter =     6  omega = -3.54021D+03  absolute =  4.84126D+03  rms  =  1.01474D+01
          iter =     7  omega = -8.51955D-04  absolute =  3.95981D+01  rms  =  8.32179D+00
          iter =     8  omega =  9.79656D+00  absolute =  3.55034D+01  rms  =  3.62920D-01
          iter =     9  omega = -1.59416D-02  absolute =  9.49715D-01  rms  =  6.06827D-01
          iter =    10  omega = -3.49064D-01  absolute =  2.63507D-01  rms  =  4.64657D-01
          iter =    11  omega =  3.89199D-01  absolute =  3.81288D-01  rms  =  3.02021D-01
          iter =    12  omega = -2.57431D-01  absolute =  3.19880D-02  rms  =  2.83034D-01
          iter =    13  omega =  3.32910D-01  absolute =  3.55911D+00  rms  =  2.72173D+00
          iter =    14  omega = -3.65414D+03  absolute =  3.08951D+01  rms  =  1.86715D-01
          iter =    15  omega = -4.51090D-03  absolute =  1.02910D+00  rms  =  2.67783D-01
          iter =    16  omega = -1.28704D+00  absolute =  5.02026D-01  rms  =  4.32457D-02
          iter =    17  omega = -1.16922D+00  absolute =  1.23556D-01  rms  =  2.52658D-02
       28               19                                                                        -8.55083               1    29    75  lay row col
       29                             0             0           1670.43          1670.43    
          iter =     0  omega =  1.67043D+03  absolute =  2.94784D+00  rms  =  3.01568D+00
          iter =     1  omega =  5.44710D-03  absolute =  1.41127D+00  rms  =  2.02199D+00
          iter =     2  omega = -2.85703D-01  absolute =  7.64974D+00  rms  =  1.03042D+01
          iter =     3  omega = -5.60203D+02  absolute =  9.81859D+01  rms  =  1.37431D+00
          iter =     4  omega = -1.20472D-03  absolute =  2.57168D+00  rms  =  2.20648D+00
          iter =     5  omega =  7.58003D+00  absolute =  1.32592D+00  rms  =  1.86854D+00
          iter =     6  omega = -3.29817D-01  absolute =  6.76854D+00  rms  =  4.19186D+00
          iter =     7  omega =  3.32773D+01  absolute =  1.27785D+01  rms  =  5.88238D-01
          iter =     8  omega =  1.41066D-01  absolute =  1.19426D+00  rms  =  2.00432D-01
          iter =     9  omega =  5.91992D-02  absolute =  1.18815D-01  rms  =  1.54771D-01
          iter =    10  omega = -2.30081D-01  absolute =  6.37985D-02  rms  =  1.54492D-01
          iter =    11  omega =  2.45993D+00  absolute =  2.86573D-01  rms  =  1.46960D-01
          iter =    12  omega =  2.13546D+00  absolute =  4.51187D-01  rms  =  1.29334D-01
          iter =    13  omega =  1.06655D+00  absolute =  1.21526D+00  rms  =  7.07459D-02
          iter =    14  omega =  3.52916D-01  absolute =  4.45364D-02  rms  =  6.74978D-02
          iter =    15  omega = -1.22947D+00  absolute =  9.23693D-01  rms  =  1.97346D-02
          iter =    16  omega = -7.40061D-01  absolute =  1.43445D-01  rms  =  1.10677D-02
          iter =    17  omega =  2.15517D+00  absolute =  3.32528D-01  rms  =  6.06818D-03
       29               19                                                                        -5.18543               1    30    58  lay row col
       30                             0             0           105.226          105.226    
          iter =     0  omega =  1.05226D+02  absolute =  1.11771D+00  rms  =  1.02964D+00
          iter =     1  omega =  8.29466D-03  absolute =  6.18060D-01  rms  =  6.61232D-01
          iter =     2  omega =  2.06368D-01  absolute =  5.05807D-01  rms  =  4.91030D-01
          iter =     3  omega = -1.21960D-01  absolute =  5.90554D-02  rms  =  4.77980D-01
          iter =     4  omega = -1.60421D+00  absolute =  1.97168D-01  rms  =  4.89415D-01
          iter =     5  omega =  8.55269D+00  absolute =  4.77711D-01  rms  =  3.89203D-01
          iter =     6  omega = -3.75870D+00  absolute =  1.73625D+00  rms  =  6.62862D-02
          iter =     7  omega =  9.69345D-01  absolute =  4.20257D-01  rms  =  1.04480D-01
          iter =     8  omega = -2.11699D-01  absolute =  1.94299D-01  rms  =  6.98725D-02
          iter =     9  omega =  1.23862D-01  absolute =  1.83802D-02  rms  =  6.83542D-02
          iter =    10  omega = -4.32205D-01  absolute =  1.11696D-01  rms  =  6.84460D-02
          iter =    11  omega =  7.40791D+00  absolute =  1.52893D-01  rms  =  6.70767D-02
          iter =    12  omega = -5.71293D-02  absolute =  7.66243D-03  rms  =  6.63850D-02
          iter =    13  omega = -9.46179D-01  absolute =  1.70055D+00  rms  =  3.26183D-02
          iter =    14  omega =  6.59303D+01  absolute =  2.51425D-01  rms  =  2.50832D-02
          iter =    15  omega = -2.12323D-01  absolute =  2.42406D-02  rms  =  2.21376D-02
          iter =    16  omega = -4.99568D-01  absolute =  1.12284D-01  rms  =  2.43311D-02
          iter =    17  omega = -6.85624D+00  absolute =  6.72548D-01  rms  =  1.29288D-03
       30               19                                                                        -3.01510               1    21    28  lay row col
       31                             0             0           7.60067          7.60067    
          iter =     0  omega =  7.60067D+00  absolute =  6.51724D-01  rms  =  3.24200D-01
          iter =     1  omega =  4.85943D-03  absolute =  2.42974D-01  rms  =  2.10401D-01
          iter =     2  omega =  2.37596D-01  absolute =  2.10499D-01  rms  =  1.69791D-01
          iter =     3  omega = -4.56972D-01  absolute =  1.13502D-01  rms  =  1.59360D-01
          iter =     4  omega =  8.59787D+00  absolute =  3.51600D-01  rms  =  1.84417D-01
          iter =     5  omega = -1.20058D+00  absolute =  6.28793D+00  rms  =  8.30679D-01
          iter =     6  omega =  1.94816D+02  absolute =  2.12562D+01  rms  =  7.87619D-02
          iter =     7  omega =  1.87729D-02  absolute =  5.68235D-01  rms  =  2.41144D-02
          iter =     8  omega = -6.94188D-03  absolute =  4.30166D-03  rms  =  2.38954D-02
          iter =     9  omega = -1.67060D+00  absolute =  2.24898D-02  rms  =  2.48936D-02
          iter =    10  omega = -7.13151D+00  absolute =  1.38226D-01  rms  =  1.97679D-02
          iter =    11  omega =  1.69657D-01  absolute =  5.37036D-02  rms  =  2.55711D-02
          iter =    12  omega = -4.86962D+00  absolute =  2.14818D-02  rms  =  2.18348D-02
          iter =    13  omega = -2.68773D+00  absolute =  2.61044D+00  rms  =  1.03713D-01
          iter =    14  omega = -2.19086D+01  absolute =  1.19285D+00  rms  =  3.49650D-02
          iter =    15  omega =  1.09498D-02  absolute =  2.93323D-02  rms  =  2.80852D-02
          iter =    16  omega = -7.86528D-01  absolute =  1.13019D-01  rms  =  2.05447D-02
          iter =    17  omega =  2.89386D+00  absolute =  1.00932D-01  rms  =  1.19710D-02
          iter =    18  omega = -1.00524D-01  absolute =  8.85106D-03  rms  =  1.26328D-02
          iter =    19  omega = -4.09613D-01  absolute =  1.31968D-02  rms  =  1.04199D-02
          iter =    20  omega = -1.26631D+00  absolute =  4.30638D-01  rms  =  2.49246D-02
          iter =    21  omega = -4.80867D+02  absolute =  1.68179D+00  rms  =  2.00069D-02
          iter =    22  omega =  1.59901D+00  absolute =  9.70071D-01  rms  =  7.11612D-04
       31               24                                                                        -1.72420               1    39    59  lay row col
       32                             0             0          0.667811         0.667811    
          iter =     0  omega =  6.67811D-01  absolute =  3.40122D-01  rms  =  9.38521D-02
          iter =     1  omega =  1.56155D-04  absolute =  4.43890D-02  rms  =  6.70994D-02
          iter =     2  omega = -7.96226D-01  absolute =  1.23165D-01  rms  =  7.81172D-02
          iter =     3  omega =  6.89321D+00  absolute =  3.08386D-02  rms  =  6.51265D-02
          iter =     4  omega = -5.50650D-01  absolute =  1.20191D-01  rms  =  5.19337D-02
[...]
        51.38       51.38       51.38       51.38       51.78       52.44       53.04       53.51       53.81       53.93    
        53.82       53.48       52.90       52.07       51.01       49.74       48.30       46.71       45.02       43.27    
        41.53       39.82       38.21       36.73       35.42       34.41       34.35       34.34       34.33       34.33    
        34.32       34.31       34.31       34.31       34.37       35.08       35.79       36.45       37.00       37.42    
        37.65       37.68       37.48       37.04       36.35       35.43       34.30       32.97       31.49       29.89    
        28.22       26.53       24.86       24.01       24.01       24.01       24.01       24.01       24.01       24.01    
  64    68.73       68.10       67.24       66.16       64.90       63.48       61.94       60.32       58.66       57.02    
        55.44       53.96       52.61       51.46       51.37       51.37       51.37       51.37       51.37       51.37    
        51.37       51.37       51.37       51.37       51.69       52.32       52.88       53.32       53.61       53.72    
        53.62       53.30       52.74       51.96       50.95       49.75       48.38       46.87       45.27       43.62    
        41.96       40.35       38.82       37.42       36.19       35.15       34.48       34.39       34.36       34.35    
        34.33       34.32       34.32       34.52       35.16       35.84       36.52       37.14       37.67       38.06    
        38.29       38.31       38.12       37.70       37.05       36.18       35.11       33.85       32.44       30.93    
        29.34       27.74       26.16       24.64       24.01       24.01       24.01       24.01       24.01       24.01    
  65    67.66       67.07       66.26       65.24       64.05       62.71       61.26       59.73       58.17       56.62    
        55.13       53.73       52.46       51.39       51.37       51.36       51.36       51.36       51.36       51.36    
        51.36       51.36       51.36       51.36       51.59       52.19       52.71       53.13       53.41       53.51    
        53.42       53.11       52.59       51.85       50.90       49.77       48.48       47.05       45.54       43.99    
        42.42       40.90       39.45       38.13       36.97       36.00       35.23       34.73       34.50       34.43    
        34.39       34.48       34.88       35.40       36.01       36.65       37.29       37.88       38.38       38.75    
        38.96       38.98       38.80       38.41       37.79       36.97       35.96       34.77       33.45       32.02    
        30.52       29.01       27.52       26.09       24.77       24.01       24.01       24.01       24.01       24.01    
  66    66.56       66.00       65.24       64.29       63.17       61.91       60.55       59.11       57.65       56.20    
        54.80       53.49       52.30       51.36       51.36       51.36       51.36       51.36       51.36       51.36    
        51.36       51.36       51.36       51.36       51.49       52.05       52.55       52.94       53.20       53.30    
        53.21       52.92       52.43       51.74       50.85       49.79       48.58       47.24       45.83       44.37    
        42.90       41.47       40.12       38.89       37.79       36.88       36.16       35.63       35.30       35.16    
        35.21       35.45       35.83       36.32       36.89       37.50       38.10       38.65       39.12       39.47    
        39.66       39.69       39.52       39.15       38.58       37.81       36.85       35.74       34.50       33.16    
        31.76       30.34       28.94       27.60       26.36       25.26       24.31       24.01       24.01       24.01    
  67    65.41       64.89       64.18       63.29       62.25       61.08       59.81       58.48       57.11       55.76    
        54.45       53.23       52.13       51.35       51.35       51.35       51.35       51.35       51.35       51.35    
        51.35       51.35       51.35       51.35       51.39       51.91       52.38       52.75       52.99       53.08    
        53.00       52.74       52.28       51.63       50.81       49.82       48.69       47.44       46.12       44.76    
        43.40       42.06       40.81       39.66       38.65       37.80       37.11       36.62       36.31       36.18    
        36.24       36.46       36.82       37.28       37.81       38.38       38.94       39.46       39.89       40.22    
        40.41       40.43       40.27       39.93       39.39       38.68       37.79       36.76       35.60       34.35    
        33.04       31.72       30.41       29.17       28.01       26.98       26.11       25.40       24.88       24.56    
  68    64.22       63.74       63.09       62.27       61.31       60.22       59.05       57.81       56.55       55.30    
        54.09       52.96       51.94       51.35       51.35       51.35       51.35       51.35       51.34       51.34    
        51.34       51.34       51.34       51.34       51.34       51.77       52.20       52.55       52.77       52.86    
        52.79       52.54       52.12       51.53       50.76       49.85       48.80       47.65       46.43       45.17    
        43.91       42.68       41.52       40.46       39.53       38.73       38.10       37.64       37.35       37.24    
        37.30       37.51       37.84       38.27       38.77       39.29       39.81       40.29       40.70       41.00    
        41.18       41.20       41.06       40.74       40.25       39.59       38.77       37.81       36.74       35.58    
        34.38       33.15       31.94       30.79       29.72       28.77       27.96       27.31       26.83       26.53    
  69    63.00       62.56       61.96       61.21       60.33       59.34       58.26       57.13       55.97       54.83    
        53.72       52.68       51.75       51.34       51.34       51.34       51.34       51.34       51.34       51.34    
        51.34       51.33       51.33       51.33       51.33       51.62       52.02       52.34       52.55       52.64    
        52.57       52.35       51.96       51.42       50.72       49.88       48.93       47.87       46.75       45.60    
        44.44       43.32       42.26       41.28       40.43       39.70       39.11       38.70       38.43       38.33    
        38.39       38.59       38.89       39.29       39.75       40.23       40.71       41.16       41.53       41.82    
        41.98       42.00       41.87       41.58       41.13       40.53       39.78       38.90       37.92       36.86    
        35.75       34.63       33.52       32.47       31.49       30.62       29.87       29.28       28.84       28.57    
  70    61.75       61.35       60.81       60.13       59.33       58.43       57.46       56.43       55.38       54.34    
        53.33       52.40       51.55       51.33       51.33       51.33       51.33       51.33       51.33       51.33    
        51.33       51.33       51.32       51.32       51.32       51.47       51.84       52.13       52.33       52.41    
        52.35       52.15       51.81       51.31       50.68       49.92       49.05       48.10       47.08       46.04    
        45.00       43.98       43.01       42.13       41.35       40.69       40.16       39.77       39.53       39.45    
        39.51       39.69       39.97       40.34       40.76       41.20       41.64       42.05       42.40       42.66    
        42.81       42.83       42.72       42.46       42.05       41.50       40.82       40.03       39.13       38.17    
        37.17       36.15       35.15       34.19       33.30       32.51       31.83       31.29       30.90       30.65    
  71    60.47       60.12       59.63       59.03       58.31       57.51       56.63       55.71       54.77       53.84    
        52.94       52.10       51.35       51.33       51.33       51.33       51.33       51.33       51.32       51.32    
        51.32       51.32       51.32       51.31       51.31       51.33       51.66       51.92       52.10       52.18    
        52.13       51.96       51.65       51.21       50.64       49.96       49.19       48.33       47.42       46.49    
        45.56       44.65       43.79       42.99       42.29       41.69       41.21       40.87       40.67       40.60    
        40.66       40.82       41.08       41.41       41.79       42.20       42.60       42.97       43.28       43.52    
        43.66       43.68       43.58       43.35       42.99       42.50       41.89       41.18       40.38       39.52    
        38.62       37.71       36.81       35.95       35.15       34.45       33.84       33.36       33.01       32.79    
  72    59.17       58.86       58.43       57.90       57.27       56.56       55.79       54.98       54.15       53.32    
        52.53       51.79       51.32       51.32       51.32       51.32       51.32       51.32       51.32       51.32    
        51.31       51.31       51.31       51.30       51.30       51.29       51.47       51.71       51.87       51.94    
        51.91       51.76       51.49       51.10       50.61       50.01       49.33       48.57       47.78       46.96    
        46.14       45.33       44.57       43.87       43.24       42.71       42.30       42.00       41.83       41.77    
        41.82       41.98       42.21       42.51       42.85       43.21       43.57       43.90       44.19       44.40    
        44.53       44.56       44.47       44.27       43.96       43.53       42.99       42.36       41.66       40.90    
        40.11       39.30       38.51       37.75       37.05       36.42       35.89       35.47       35.16       34.97    
  73    57.84       57.58       57.21       56.75       56.21       55.60       54.93       54.23       53.51       52.80    
        52.12       51.48       51.32       51.32       51.32       51.32       51.32       51.31       51.31       51.31    
        51.31       51.30       51.30       51.29       51.28       51.27       51.29       51.49       51.64       51.71    
        51.68       51.56       51.33       51.00       50.57       50.06       49.47       48.83       48.14       47.44    
        46.73       46.03       45.36       44.75       44.21       43.76       43.40       43.15       43.00       42.96    
        43.01       43.15       43.36       43.62       43.93       44.25       44.56       44.86       45.11       45.30    
        45.42       45.45       45.38       45.21       44.94       44.57       44.11       43.57       42.96       42.30    
        41.62       40.92       40.23       39.58       38.97       38.44       37.98       37.61       37.35       37.19    
  74    56.49       56.28       55.97       55.59       55.13       54.62       54.06       53.47       52.87       52.27    
        51.69       51.31       51.31       51.31       51.31       51.31       51.31       51.31       51.31       51.30    
        51.30       51.29       51.29       51.28       51.27       51.26       51.24       51.28       51.41       51.47    
        51.46       51.36       51.17       50.90       50.54       50.11       49.62       49.10       48.52       47.93    
        47.32       46.73       46.16       45.64       45.19       44.81       44.52       44.31       44.20       44.17    
        44.22       44.34       44.52       44.76       45.02       45.30       45.57       45.83       46.05       46.22    
        46.33       46.36       46.30       46.17       45.94       45.63       45.25       44.79       44.28       43.73    
        43.15       42.57       41.99       41.44       40.93       40.48       40.09       39.79       39.57       39.44    
  75    55.13       54.96       54.72       54.41       54.05       53.63       53.18       52.70       52.22       51.73    
        51.32       51.31       51.31       51.31       51.31       51.31       51.31       51.30       51.30       51.30    
        51.29       51.29       51.28       51.27       51.26       51.24       51.22       51.20       51.18       51.23    
        51.23       51.15       51.01       50.79       50.51       50.18       49.80       49.38       48.91       48.42    
        47.92       47.43       46.96       46.55       46.18       45.89       45.65       45.49       45.40       45.39    
        45.44       45.54       45.70       45.90       46.13       46.36       46.60       46.81       47.00       47.15    
        47.24       47.28       47.24       47.13       46.96       46.71       46.40       46.04       45.62       45.18    
        44.71       44.23       43.77       43.32       42.91       42.54       42.24       41.99       41.82       41.72    
  76    53.76       53.64       53.46       53.23       52.95       52.63       52.29       51.93       51.56       51.31    
        51.31       51.31       51.31       51.31       51.31       51.30       51.30       51.30       51.30       51.29    
        51.29       51.28       51.27       51.26       51.24       51.23       51.20       51.17       51.13       51.09    
        51.04       50.97       50.87       50.71       50.53       50.29       50.00       49.67       49.29       48.90    
        48.51       48.12       47.77       47.46       47.19       46.97       46.80       46.68       46.62       46.62    
        46.67       46.76       46.89       47.06       47.24       47.44       47.63       47.81       47.96       48.09    
        48.17       48.20       48.19       48.11       47.98       47.80       47.57       47.29       46.98       46.64    
        46.28       45.92       45.56       45.22       44.91       44.63       44.40       44.22       44.09       44.02    
  77    52.38       52.30       52.18       52.03       51.84       51.63       51.40       51.31       51.31       51.31    
        51.31       51.31       51.31       51.31       51.30       51.30       51.30       51.30       51.29       51.29    
        51.28       51.27       51.26       51.25       51.23       51.21       51.19       51.15       51.11       51.07    
        51.01       50.94       50.86       50.74       50.60       50.42       50.19       49.93       49.66       49.37    
        49.09       48.83       48.60       48.39       48.21       48.06       47.95       47.88       47.85       47.86    
        47.90       47.98       48.09       48.22       48.37       48.52       48.67       48.81       48.93       49.03    
        49.10       49.14       49.14       49.10       49.02       48.90       48.74       48.55       48.34       48.10    
        47.86       47.61       47.36       47.13       46.92       46.73       46.57       46.45       46.37       46.33    
  78    51.31       51.31       51.31       51.31       51.31       51.31       51.31       51.31       51.31       51.31    
        51.31       51.31       51.31       51.30       51.30       51.30       51.30       51.29       51.29       51.28    
        51.28       51.27       51.26       51.24       51.22       51.20       51.17       51.14       51.10       51.06    
        51.00       50.94       50.87       50.78       50.66       50.53       50.36       50.18       50.00       49.83    
        49.69       49.56       49.43       49.32       49.23       49.16       49.10       49.08       49.08       49.10    
        49.15       49.21       49.29       49.39       49.49       49.60       49.71       49.81       49.90       49.98    
        50.04       50.08       50.10       50.09       50.05       50.00       49.92       49.82       49.70       49.58    
        49.45       49.31       49.18       49.05       48.94       48.84       48.76       48.70       48.66       48.65    
  79    51.31       51.31       51.31       51.31       51.31       51.31       51.31       51.31       51.31       51.31    
        51.31       51.31       51.30       51.30       51.30       51.30       51.30       51.29       51.29       51.28    
        51.27       51.26       51.25       51.24       51.22       51.19       51.17       51.13       51.10       51.05    
        51.00       50.94       50.88       50.80       50.71       50.61       50.51       50.40       50.34       50.32    
        50.30       50.28       50.26       50.25       50.25       50.25       50.26       50.28       50.31       50.35    
        50.39       50.44       50.50       50.56       50.62       50.69       50.75       50.82       50.88       50.93    
        50.98       51.02       51.05       51.08       51.09       51.10       51.10       51.09       51.07       51.05    
        51.03       51.01       50.99       50.97       50.96       50.95       50.94       50.95       50.96       50.98    
  80    51.31       51.31       51.31       51.31       51.31       51.31       51.31       51.31       51.31       51.31    
        51.31       51.31       51.30       51.30       51.30       51.30       51.30       51.29       51.29       51.28    
        51.27       51.26       51.25       51.23       51.21       51.19       51.16       51.13       51.09       51.05    
        51.00       50.95       50.89       50.82       50.75       50.67       50.61       50.61       50.71       50.80    
        50.90       51.00       51.09       51.18       51.27       51.35       51.42       51.48       51.54       51.59    
        51.63       51.67       51.70       51.73       51.75       51.77       51.80       51.82       51.85       51.88    
        51.91       51.96       52.01       52.06       52.12       52.19       52.27       52.35       52.44       52.53    
        52.62       52.71       52.80       52.89       52.97       53.05       53.13       53.19       53.25       53.30    

 HEAD WILL BE SAVED ON UNIT   51 AT END OF TIME STEP   1, STRESS PERIOD    1
1
  VOLUMETRIC BUDGET FOR ENTIRE MODEL AT END OF TIME STEP       1 IN STRESS PERIOD       1
  ---------------------------------------------------------------------------------------

     CUMULATIVE VOLUMES      L**3       RATES FOR THIS TIME STEP      L**3/T
     ------------------                 ------------------------

           IN:                                      IN:
           ---                                      ---
             STORAGE =           0.0000               STORAGE =           0.0000
       CONSTANT HEAD =           0.0000         CONSTANT HEAD =           0.0000
            RECHARGE =         108.3503              RECHARGE =           0.2969

            TOTAL IN =         108.3503              TOTAL IN =           0.2969

          OUT:                                     OUT:
          ----                                     ----
             STORAGE =           0.0000               STORAGE =           0.0000
       CONSTANT HEAD =         108.3545         CONSTANT HEAD =           0.2969
            RECHARGE =           0.0000              RECHARGE =           0.0000

           TOTAL OUT =         108.3545             TOTAL OUT =           0.2969

            IN - OUT =      -4.1174E-03              IN - OUT =      -1.1281E-05

 PERCENT DISCREPANCY =          -0.00     PERCENT DISCREPANCY =          -0.00






          TIME SUMMARY AT END OF TIME STEP         1 IN STRESS PERIOD         1
                    SECONDS     MINUTES      HOURS       DAYS        YEARS
                    -----------------------------------------------------------
   TIME STEP LENGTH 3.15360E+07 5.25600E+05  8760.0      365.00     0.99932    
 STRESS PERIOD TIME 3.15360E+07 5.25600E+05  8760.0      365.00     0.99932    
         TOTAL TIME 3.15360E+07 5.25600E+05  8760.0      365.00     0.99932    
1

 Run end date and time (yyyy/mm/dd hh:mm:ss): 2017/10/02 16:44:05
 Elapsed run time:  0.562 Seconds

