                                  MODFLOW-NWT-SWR1 
      U.S. GEOLOGICAL SURVEY MODULAR FINITE-DIFFERENCE GROUNDWATER-FLOW MODEL
                            VERSION 1.1.3, 8/01/2017
                    BASED ON MODFLOW-2005 VERSION 1.11.00 08/08/2013

 LIST FILE: NWTP3.list
                         UNIT    2

 OPENING NWTP3.dis
 FILE TYPE:DIS   UNIT   11   STATUS:OLD    
 FORMAT:FORMATTED              ACCESS:SEQUENTIAL          

 OPENING NWTP3.bas
 FILE TYPE:BAS6   UNIT   13   STATUS:OLD    
 FORMAT:FORMATTED              ACCESS:SEQUENTIAL          

 OPENING NWTP3.upw
 FILE TYPE:UPW   UNIT   31   STATUS:OLD    
 FORMAT:FORMATTED              ACCESS:SEQUENTIAL          

 OPENING NWTP3_Rlow.rch
 FILE TYPE:RCH   UNIT   19   STATUS:OLD    
 FORMAT:FORMATTED              ACCESS:SEQUENTIAL          

 OPENING NWTP3.oc
 FILE TYPE:OC   UNIT   14   STATUS:OLD    
 FORMAT:FORMATTED              ACCESS:SEQUENTIAL          

 OPENING NWTP3.hds
 FILE TYPE:DATA(BINARY)   UNIT   51   STATUS:REPLACE
 FORMAT:UNFORMATTED            ACCESS:STREAM              

 OPENING NWTP3.nwt
 FILE TYPE:NWT   UNIT   32   STATUS:OLD    
 FORMAT:FORMATTED              ACCESS:SEQUENTIAL          

 BAS -- BASIC PACKAGE, VERSION 1.1.3, 8/01/2017 INPUT READ FROM UNIT   13
 
 MODFLOW was compiled using uniform precision
 Precision of REAL and DOUBLE PRECISION variables:          15

 DISCRETIZATION INPUT DATA READ FROM UNIT   11
 # Discretization file for MODFLOW, generated by Flopy.
    1 LAYERS        80 ROWS        80 COLUMNS
    1 STRESS PERIOD(S) IN SIMULATION
 MODEL TIME UNIT IS DAYS
 MODEL LENGTH UNIT IS METERS
  Confining bed flag for each layer:
   0

                     DELR =   100.000    

                     DELC =   100.000    

 TOP ELEVATION OF LAYER 1 =   200.000    



             MODEL LAYER BOTTOM EL. FOR LAYER   1
 READING ON UNIT   11 WITH FORMAT: (80G15.6)           


 STRESS PERIOD     LENGTH       TIME STEPS     MULTIPLIER FOR DELT    SS FLAG
 ----------------------------------------------------------------------------
        1         365.0000          1                    1.000         SS

 STEADY-STATE SIMULATION



 
 # Basic package file for MODFLOW, generated by Flopy.                           
 THE FREE FORMAT OPTION HAS BEEN SELECTED



                     BOUNDARY ARRAY FOR LAYER   1
 READING ON UNIT   13 WITH FORMAT: (80I10)             

 AQUIFER HEAD WILL BE SET TO  -999.99     AT ALL NO-FLOW NODES (IBOUND=0).



                       INITIAL HEAD FOR LAYER   1
 READING ON UNIT   13 WITH FORMAT: (80G15.6)           
 # Output control package file for MODFLOW, generated by Flopy. Output control by words option

 OUTPUT CONTROL IS SPECIFIED ONLY AT TIME STEPS FOR WHICH OUTPUT IS DESIRED
 HEAD PRINT FORMAT CODE IS   0    DRAWDOWN PRINT FORMAT CODE IS   0
 HEADS WILL BE SAVED ON UNIT   51    DRAWDOWNS WILL BE SAVED ON UNIT    0
 # NWT for MODFLOW-NWT, generated by Flopy.

 NWT1 -- Newton Solver, VERSION 1.1.3, 8/01/2017
         INPUT READ FROM UNIT 32

 SPECIFIED OPTION:
 SOLVER INPUT VALUES ARE SPECIFIED BY USER
 ***XMD linear solver will be used***
 
   CONVERGENCE CRITERION OF   0.100000E-05 FOR HEAD SOLUTION
   AND A TOLERANCE OF   0.100000E+01 FOR FLOW SOLUTION AND 
   A MAXIMUM OF   500 OUTER ITERATIONS. 


   D-B-D REDUCTION FACTOR OF    0.900000E+00 AND 
   A D-B-D INCREASE FACTOR OF    0.100000E-03 AND 
   A D-B-D RELAXATION OF    0.000000E+00 AND 
   A MOMENTUM FACTOR OF    0.100000E+00 .


   BACKTRACKING IS ACTIVE 
   THE MAXIMUM NUMBER OF BACKTRACKS IS    20 AND 
   THE BACKTRACKING TOLERANCE IS    0.200000E+01 AND
   THE BACKTRACKING REDUCTION FACTOR IS    0.600000E+00

 XMD -- LINEAR SOLUTION BY XMD PACKAGE VERSION 1.30
     BY MOTOMU IBARAKI, OHIO STATE UNIVERSITY, COLOMBUS, OH
                 INPUT READ FROM UNIT 32
 ACCELERATION METHOD                    (IACL) =         2
 NODE ORDERING FLAG                   (NORDER) =         0
 LEVEL OF FILL                         (LEVEL) =         3
 MAXIMUM NUMBER OF ORTHOGONALIZATIONS  (NORTH) =         7
 INDEX FOR USING REDUCED SYSTEM      (IREDSYS) =         0
 RESID. REDUCTION CONVERGE CRITERION  (RRCTOL) =  0.100000E-03
 INDEX FOR USING DROP TOLERANCE     (IDROPTOL) =         1
 DROP TOLERANCE VALUE                  (EPSRN) =  0.100000E-03
 CONVERGENCE CRITERIA OF           (HCLOSEXMD) =  0.100000E-05
 MAX. NUMBER OF LINEAR ITERATIONS  (MXITERXMD) =       200


 UPW1 -- UPSTREAM WEIGHTING FLOW PACKAGE, VERSION 1.1.3, 8/01/2017
         INPUT READ FROM UNIT 31

 # UPW for MODFLOW-NWT, generated by Flopy.
 CELL-BY-CELL FLOWS WILL BE SAVED ON UNIT   53
 No named parameters

   LAYER FLAGS:
 LAYER       LAYTYP          LAYAVG    CHANI           LAYVKA           LAYWET
 ---------------------------------------------------------------------------
    1             1             0     1.000E+00             0             0

   INTERPRETATION OF LAYER FLAGS:
                        INTERBLOCK     HORIZONTAL    DATA IN
         LAYER TYPE   TRANSMISSIVITY   ANISOTROPY   ARRAY VKA   WETTABILITY
 LAYER   (LAYTYP)        (LAYAVG)      (CHANI)     (LAYVKA)       (LAYWET)
 ---------------------------------------------------------------------------
    1   CONVERTIBLE      HARMONIC     1.000E+00    VERTICAL K  NON-WETTABLE

    HYD. COND. ALONG ROWS =   1.00000     FOR LAYER   1

      VERTICAL HYD. COND. =   1.00000     FOR LAYER   1

 RCH -- RECHARGE PACKAGE, VERSION 7, 5/2/2005 INPUT READ FROM UNIT   19
 # RCH for MODFLOW, generated by Flopy.
 No named parameters
 OPTION 3 -- RECHARGE TO HIGHEST ACTIVE NODE IN EACH VERTICAL COLUMN


     0 Recharge parameters
1
                            STRESS PERIOD NO.    1, LENGTH =   365.0000    
                            -----------------------------------------------

                              NUMBER OF TIME STEPS =     1

                               MULTIPLIER FOR DELT =     1.000

                            INITIAL TIME STEP SIZE =   365.0000    



                           RECHARGE
 READING ON UNIT   19 WITH FORMAT: (80G15.6)           
 
 SOLVING FOR HEAD 
                                                   Max.-Head-Change                        Max.-Flux-Residual
  Residual-Control   Outer-Iter.   Inner-Iter.     Column Row Layer    Max.-Head-Change    Column Row Layer    Max.-Flux-Residual            L2-New               L2-Old           Solver-Max-Delh
          0                 1          23            33    2     1      -0.1999931420E+02      80   80    1      -0.4739868229E+02      0.4256612559E+03      0.0000000000E+00     -0.1999931420E+02
          1                 1           0            33    2     1      -0.1199958852E+02      79   14    1       0.3237858685E+03      0.2977396900E+04      0.4256612559E+03     -0.1999931420E+02
          0                 2          22            69   65     1      -0.9990264625E+01      79   14    1      -0.4626794510E+02      0.4540514156E+03      0.2977396900E+04     -0.9990264625E+01
          0                 3          26            72   24     1      -0.4511628206E+01      62   48    1      -0.7556171142E+02      0.6748778742E+03      0.4540514156E+03     -0.4511628206E+01
          0                 4          22            50   47     1       0.1989098105E+04      72   24    1       0.1729648335E+02      0.2151394729E+03      0.6748778742E+03      0.1989098105E+04
          1                 4           0            50   47     1       0.1193458863E+04      47   42    1      -0.1563514963E+06      0.9849259731E+06      0.2151394729E+03      0.1989098105E+04
          2                 4           0            50   47     1       0.7160753179E+03      47   42    1      -0.9378538737E+05      0.6006824963E+06      0.9849259731E+06      0.1989098105E+04
          3                 4           0            50   47     1       0.4296451908E+03      46   50    1       0.5687075604E+05      0.3706377249E+06      0.6006824963E+06      0.1989098105E+04
          4                 4           0            50   47     1       0.2577871145E+03      52   38    1       0.3646970409E+05      0.2280704429E+06      0.3706377249E+06      0.1989098105E+04
          5                 4           0            50   47     1       0.1546722687E+03      46   43    1       0.2278415877E+05      0.1251582401E+06      0.2280704429E+06      0.1989098105E+04
                                                   Max.-Head-Change                        Max.-Flux-Residual
  Residual-Control   Outer-Iter.   Inner-Iter.     Column Row Layer    Max.-Head-Change    Column Row Layer    Max.-Flux-Residual            L2-New               L2-Old           Solver-Max-Delh
          6                 4           0            50   47     1       0.9280336120E+02      46   43    1       0.9411495762E+04      0.4789255789E+05      0.1251582401E+06      0.1989098105E+04
          7                 4           0            50   47     1       0.5568201672E+02      46   43    1       0.3407928794E+04      0.1731383680E+05      0.4789255789E+05      0.1989098105E+04
          8                 4           0            50   47     1       0.3340921003E+02      46   43    1       0.1238700945E+04      0.6280490537E+04      0.1731383680E+05      0.1989098105E+04
          9                 4           0            50   47     1       0.2004552602E+02      46   43    1       0.4530126760E+03      0.2298984674E+04      0.6280490537E+04      0.1989098105E+04
         10                 4           0            50   47     1       0.1202731561E+02      46   43    1       0.1673048652E+03      0.8744257986E+03      0.2298984674E+04      0.1989098105E+04
          0                 5         200             3   80     1       0.1725041305E+39      46   43    1       0.6249288124E+02      0.3969764869E+03      0.8744257986E+03      0.1725041305E+39
          1                 5           0             3   80     1       0.1035024783E+39       3   80    1      -0.6517618697E+41      0.1001095763E+42      0.3969764869E+03      0.1725041305E+39
          2                 5           0             3   80     1       0.6210148696E+38       3   80    1      -0.3910571218E+41      0.6006574578E+41      0.1001095763E+42      0.1725041305E+39
          3                 5           0             3   80     1       0.3726089218E+38       3   80    1      -0.2346342731E+41      0.3603944747E+41      0.6006574578E+41      0.1725041305E+39
          4                 5           0             3   80     1       0.2235653531E+38       3   80    1      -0.1407805639E+41      0.2162366848E+41      0.3603944747E+41      0.1725041305E+39
                                                   Max.-Head-Change                        Max.-Flux-Residual
  Residual-Control   Outer-Iter.   Inner-Iter.     Column Row Layer    Max.-Head-Change    Column Row Layer    Max.-Flux-Residual            L2-New               L2-Old           Solver-Max-Delh
          5                 5           0             3   80     1       0.1341392118E+38       3   80    1      -0.8446833832E+40      0.1297420109E+41      0.2162366848E+41      0.1725041305E+39
          6                 5           0             3   80     1       0.8048352710E+37       3   80    1      -0.5068100299E+40      0.7784520654E+40      0.1297420109E+41      0.1725041305E+39
          7                 5           0             3   80     1       0.4829011626E+37       3   80    1      -0.3040860179E+40      0.4670712392E+40      0.7784520654E+40      0.1725041305E+39
          8                 5           0             3   80     1       0.2897406976E+37       3   80    1      -0.1824516108E+40      0.2802427435E+40      0.4670712392E+40      0.1725041305E+39
          9                 5           0             3   80     1       0.1738444185E+37       3   80    1      -0.1094709665E+40      0.1681456461E+40      0.2802427435E+40      0.1725041305E+39
         10                 5           0             3   80     1       0.1043066511E+37       3   80    1      -0.6568257987E+39      0.1008873877E+40      0.1681456461E+40      0.1725041305E+39
         11                 5           0             3   80     1       0.6258399068E+36       3   80    1      -0.3940954792E+39      0.6053243260E+39      0.1008873877E+40      0.1725041305E+39
         12                 5           0             3   80     1       0.3755039441E+36       3   80    1      -0.2364572875E+39      0.3631945956E+39      0.6053243260E+39      0.1725041305E+39
         13                 5           0             3   80     1       0.2253023664E+36       3   80    1      -0.1418743725E+39      0.2179167574E+39      0.3631945956E+39      0.1725041305E+39
         14                 5           0             3   80     1       0.1351814199E+36       3   80    1      -0.8512462352E+38      0.1307500544E+39      0.2179167574E+39      0.1725041305E+39
                                                   Max.-Head-Change                        Max.-Flux-Residual
  Residual-Control   Outer-Iter.   Inner-Iter.     Column Row Layer    Max.-Head-Change    Column Row Layer    Max.-Flux-Residual            L2-New               L2-Old           Solver-Max-Delh
         15                 5           0             3   80     1       0.8110885192E+35       3   80    1      -0.5107477411E+38      0.7845003265E+38      0.1307500544E+39      0.1725041305E+39
         16                 5           0             3   80     1       0.4866531115E+35       3   80    1      -0.3064486447E+38      0.4707001959E+38      0.7845003265E+38      0.1725041305E+39
         17                 5           0             3   80     1       0.2919918669E+35       3   80    1      -0.1838691868E+38      0.2824201176E+38      0.4707001959E+38      0.1725041305E+39
         18                 5           0             3   80     1       0.1751951201E+35       3   80    1      -0.1103215121E+38      0.1694520705E+38      0.2824201176E+38      0.1725041305E+39
         19                 5           0             3   80     1       0.1051170721E+35       3   80    1      -0.6619290725E+37      0.1016712423E+38      0.1694520705E+38      0.1725041305E+39
         20                 5           0             3   80     1       0.6307024325E+34       3   80    1      -0.3971574435E+37      0.6100274539E+37      0.1016712423E+38      0.1725041305E+39
          0                 6           4             3   80     1      -0.5642904668E+34       3   80    1      -0.2382944661E+37      0.3660164723E+37      0.6100274539E+37     -0.5642904668E+34
          0                 7          14             3   80     1      -0.5785640916E+33       3   80    1      -0.2115665621E+36      0.9581299041E+36      0.3660164723E+37     -0.5785640916E+33
          0                 8          14             3   80     1      -0.7163288183E+32      11   57    1      -0.2313381797E+35      0.1254496613E+36      0.9581299041E+36     -0.7163288183E+32
          0                 9          17            64    1     1      -0.3296271042E+32      61    1    1      -0.5148386532E+34      0.1460969229E+35      0.1254496613E+36     -0.3296271042E+32
                                                   Max.-Head-Change                        Max.-Flux-Residual
  Residual-Control   Outer-Iter.   Inner-Iter.     Column Row Layer    Max.-Head-Change    Column Row Layer    Max.-Flux-Residual            L2-New               L2-Old           Solver-Max-Delh
          0                10          21            13   32     1      -0.3073721760E+31      24   30    1       0.2115810541E+34      0.1777083048E+35      0.1460969229E+35     -0.3073721760E+31
          0                11          21             4    2     1      -0.5199795275E+30      24   30    1       0.2033000925E+33      0.1506239172E+34      0.1777083048E+35     -0.5199795275E+30
          0                12          20             1    1     1      -0.1134494391E+30      60   66    1      -0.2945738935E+32      0.2536443608E+33      0.1506239172E+34     -0.1134494391E+30
          0                13          27             1    1     1      -0.3356204523E+29      60   66    1      -0.1426836149E+32      0.1371818734E+33      0.2536443608E+33     -0.3356204523E+29
          0                14          23             1   66     1      -0.5051546329E+28      24   30    1       0.1925687455E+31      0.1297528682E+32      0.1371818734E+33     -0.5051546329E+28
          0                15          11            49   64     1      -0.6567161991E+27      60   66    1      -0.4979359820E+30      0.3791574870E+31      0.1297528682E+32     -0.6567161991E+27
          0                16          20             1    1     1      -0.2955324074E+27      60   66    1      -0.1245373626E+30      0.9245684951E+30      0.3791574870E+31     -0.2955324074E+27
          0                17          18             1   66     1      -0.8002626851E+26      36   63    1       0.2799193680E+29      0.2273154528E+30      0.9245684951E+30     -0.8002626851E+26
          0                18          21             1    1     1      -0.1542076888E+26      27   45    1      -0.6576200128E+28      0.6062414127E+29      0.2273154528E+30     -0.1542076888E+26
          0                19          17            19   41     1      -0.3454222702E+25      27   45    1      -0.3006528864E+28      0.2280898718E+29      0.6062414127E+29     -0.3454222702E+25
                                                   Max.-Head-Change                        Max.-Flux-Residual
  Residual-Control   Outer-Iter.   Inner-Iter.     Column Row Layer    Max.-Head-Change    Column Row Layer    Max.-Flux-Residual            L2-New               L2-Old           Solver-Max-Delh
          0                20          22            13   43     1      -0.1814526002E+25      26   46    1      -0.1105784073E+28      0.6655289525E+28      0.2280898718E+29     -0.1814526002E+25
          0                21          17            13   43     1      -0.7448786997E+24      26   46    1      -0.4380839229E+27      0.2458865575E+28      0.6655289525E+28     -0.7448786997E+24
          0                22          18            13   43     1      -0.3249397946E+24      26   46    1      -0.1729132174E+27      0.9782773004E+27      0.2458865575E+28     -0.3249397946E+24
          0                23          19            13   43     1      -0.1352243365E+24      40    9    1      -0.7383784930E+26      0.4206247445E+27      0.9782773004E+27     -0.1352243365E+24
          0                24          20            13   43     1      -0.5871358057E+23      40    9    1      -0.3158030839E+26      0.1828896192E+27      0.4206247445E+27     -0.5871358057E+23
          0                25          21            13   43     1      -0.2523317905E+23      40    9    1      -0.1365357303E+26      0.8207440987E+26      0.1828896192E+27     -0.2523317905E+23
          0                26          21            13   43     1      -0.1006849463E+23      40    9    1      -0.5935627496E+25      0.3697868165E+26      0.8207440987E+26     -0.1006849463E+23
          0                27          21            13   43     1      -0.4082865076E+22      40    9    1      -0.2474378606E+25      0.1584267378E+26      0.3697868165E+26     -0.4082865076E+22
          0                28          21            13   43     1      -0.1709183655E+22      40    9    1      -0.1014767488E+25      0.6697544525E+25      0.1584267378E+26     -0.1709183655E+22
          0                29          21            13   43     1      -0.7325159334E+21      40    9    1      -0.4185411217E+24      0.2862023520E+25      0.6697544525E+25     -0.7325159334E+21
                                                   Max.-Head-Change                        Max.-Flux-Residual
  Residual-Control   Outer-Iter.   Inner-Iter.     Column Row Layer    Max.-Head-Change    Column Row Layer    Max.-Flux-Residual            L2-New               L2-Old           Solver-Max-Delh
          0                30          21            13   43     1      -0.3146075003E+21      40    9    1      -0.1752572112E+24      0.1244000789E+25      0.2862023520E+25     -0.3146075003E+21
          0                31          21            13   43     1      -0.1350773133E+21      40    9    1      -0.7413736601E+23      0.5445316006E+24      0.1244000789E+25     -0.1350773133E+21
          0                32          21            13   43     1      -0.5815708727E+20      40    9    1      -0.3153406013E+23      0.2386256106E+24      0.5445316006E+24     -0.5815708727E+20
          0                33          21            13   43     1      -0.2519198969E+20      40    9    1      -0.1346929723E+23      0.1046246616E+24      0.2386256106E+24     -0.2519198969E+20
          0                34          21            13   43     1      -0.1096473647E+20      40    9    1      -0.5783271169E+22      0.4597693315E+23      0.1046246616E+24     -0.1096473647E+20
          0                35          21            13   43     1      -0.4795877664E+19      40    9    1      -0.2496236957E+22      0.2025269511E+23      0.4597693315E+23     -0.4795877664E+19
          0                36          21            13   43     1      -0.2097780588E+19      40    9    1      -0.1083186191E+22      0.8944287643E+22      0.2025269511E+23     -0.2097780588E+19
          0                37          21            13   43     1      -0.9193722091E+18      40    9    1      -0.4713835459E+21      0.3950291061E+22      0.8944287643E+22     -0.9193722091E+18
          0                38          21            13   43     1      -0.4036775361E+18      40   54    1       0.2085286614E+21      0.1745050527E+22      0.3950291061E+22     -0.4036775361E+18
          0                39          21            13   43     1      -0.1776371553E+18      40   54    1       0.9233362216E+20      0.7711595679E+21      0.1745050527E+22     -0.1776371553E+18
                                                   Max.-Head-Change                        Max.-Flux-Residual
  Residual-Control   Outer-Iter.   Inner-Iter.     Column Row Layer    Max.-Head-Change    Column Row Layer    Max.-Flux-Residual            L2-New               L2-Old           Solver-Max-Delh
          0                40          21            13   43     1      -0.7825268137E+17      40   54    1       0.4089194260E+20      0.3410318539E+21      0.7711595679E+21     -0.7825268137E+17
          0                41          21             1   79     1      -0.3455662493E+17      40   54    1       0.1811021338E+20      0.1508671483E+21      0.3410318539E+21     -0.3455662493E+17
          0                42          21             1   79     1      -0.1529290287E+17      40   54    1       0.8019654241E+19      0.6674883562E+20      0.1508671483E+21     -0.1529290287E+17
          0                43          21             1   79     1      -0.6809614719E+16      40   54    1       0.3547987460E+19      0.2950597784E+20      0.6674883562E+20     -0.6809614719E+16
          0                44          21             1   79     1      -0.3001594123E+16      40   54    1       0.1573601228E+19      0.1308568084E+20      0.2950597784E+20     -0.3001594123E+16
          0                45          21             1   79     1      -0.1324772577E+16      40   54    1       0.6955253259E+18      0.5778469696E+19      0.1308568084E+20     -0.1324772577E+16
          0                46          21             1   79     1      -0.5862234333E+15      40   54    1       0.3070250736E+18      0.2549278615E+19      0.5778469696E+19     -0.5862234333E+15
          0                47          21             1   79     1      -0.2594074906E+15      40   54    1       0.1356167467E+18      0.1125898082E+19      0.2549278615E+19     -0.2594074906E+15
          0                48          21             1   79     1      -0.1145176965E+15      40   54    1       0.5992894828E+17      0.4975016904E+18      0.1125898082E+19     -0.1145176965E+15
          0                49          21             1   79     1      -0.5067271662E+14      40   54    1       0.2645924952E+17      0.2195917600E+18      0.4975016904E+18     -0.5067271662E+14
                                                   Max.-Head-Change                        Max.-Flux-Residual
  Residual-Control   Outer-Iter.   Inner-Iter.     Column Row Layer    Max.-Head-Change    Column Row Layer    Max.-Flux-Residual            L2-New               L2-Old           Solver-Max-Delh
          0                50          21             1   79     1      -0.2240309306E+14      40   54    1       0.1168953503E+17      0.9701526321E+17      0.2195917600E+18     -0.2240309306E+14
          0                51          21             1   79     1      -0.9895000313E+13      40   54    1       0.5164229709E+16      0.4285850003E+17      0.9701526321E+17     -0.9895000313E+13
          0                52          21             1   79     1      -0.4367048369E+13      40   54    1       0.2280356914E+16      0.1892305893E+17      0.4285850003E+17     -0.4367048369E+13
          0                53          21             1   79     1      -0.1927718994E+13      40   54    1       0.1006304111E+16      0.8349443609E+16      0.1892305893E+17     -0.1927718994E+13
          0                54          21             1   79     1      -0.8514939368E+12      40   54    1       0.4439737158E+15      0.3683463500E+16      0.8349443609E+16     -0.8514939368E+12
          0                55          21             1   79     1      -0.3757339270E+12      40   54    1       0.1959198205E+15      0.1625516084E+16      0.3683463500E+16     -0.3757339270E+12
          0                56          21             1   79     1      -0.1659632743E+12      40   54    1       0.8642643516E+14      0.7170253926E+15      0.1625516084E+16     -0.1659632743E+12
          0                57          21             1   79     1      -0.7316013055E+11      40   54    1       0.3813640512E+14      0.3164147962E+15      0.7170253926E+15     -0.7316013055E+11
          0                58          21             1   79     1      -0.3224996880E+11      40   54    1       0.1681455266E+14      0.1394945113E+15      0.3164147962E+15     -0.3224996880E+11
          0                59          21             1   79     1      -0.1422252786E+11      40   54    1       0.7410316097E+13      0.6147266867E+14      0.1394945113E+15     -0.1422252786E+11
                                                   Max.-Head-Change                        Max.-Flux-Residual
  Residual-Control   Outer-Iter.   Inner-Iter.     Column Row Layer    Max.-Head-Change    Column Row Layer    Max.-Flux-Residual            L2-New               L2-Old           Solver-Max-Delh
          0                60          21             1   79     1      -0.6272389809E+10      40   54    1       0.3265755420E+13      0.2709206308E+14      0.6147266867E+14     -0.6272389809E+10
          0                61          21             1   79     1      -0.2764727351E+10      40   54    1       0.1439262935E+13      0.1194046827E+14      0.2709206308E+14     -0.2764727351E+10
          0                62          21             1   79     1      -0.1217870615E+10      40   54    1       0.6341479735E+12      0.5261076470E+13      0.1194046827E+14     -0.1217870615E+10
          0                63          21             1   79     1      -0.5364722083E+09      40   54    1       0.2792891222E+12      0.2316975218E+13      0.5261076470E+13     -0.5364722083E+09
          0                64          21             1   79     1      -0.2363035279E+09      40   54    1       0.1229751527E+12      0.1020190058E+13      0.2316975218E+13     -0.2363035279E+09
          0                65          21             1   79     1      -0.1040617949E+09      40   54    1       0.5414027059E+11      0.4491483540E+12      0.1020190058E+13     -0.1040617949E+09
          0                66          21             1   79     1      -0.4581277787E+08      40   54    1       0.2383117281E+11      0.1977054126E+12      0.4491483540E+12     -0.4581277787E+08
          0                67          21             1   79     1      -0.2016408992E+08      40   54    1       0.1048744343E+11      0.8700458902E+11      0.1977054126E+12     -0.2016408992E+08
          0                68          21             1   79     1      -0.8873663869E+07      40   54    1       0.4614147862E+10      0.3827918756E+11      0.8700458902E+11     -0.8873663869E+07
          0                69          21             1   79     1      -0.3904200688E+07      40   54    1       0.2029682147E+10      0.1683841070E+11      0.3827918756E+11     -0.3904200688E+07
                                                   Max.-Head-Change                        Max.-Flux-Residual
  Residual-Control   Outer-Iter.   Inner-Iter.     Column Row Layer    Max.-Head-Change    Column Row Layer    Max.-Flux-Residual            L2-New               L2-Old           Solver-Max-Delh
          0                70          21             1   79     1      -0.1717370154E+07      40   54    1       0.8926376986E+09      0.7405425530E+10      0.1683841070E+11     -0.1717370154E+07
          0                71          21             1   79     1      -0.7552569327E+06      40   54    1       0.3924907621E+09      0.3256157157E+10      0.7405425530E+10     -0.7552569327E+06
          0                72          21             1   79     1      -0.3320780883E+06      40   54    1       0.1725388349E+09      0.1431407289E+10      0.3256157157E+10     -0.3320780883E+06
          0                73          21             1   79     1      -0.1459799091E+06      40   54    1       0.7583210435E+08      0.6291162584E+09      0.1431407289E+10     -0.1459799091E+06
          0                74          21             1   79     1      -0.6415155970E+05      40   54    1       0.3332174506E+08      0.2764439578E+09      0.6291162584E+09     -0.6415155970E+05
          0                75          21             1   79     1      -0.2819655265E+05      40   54    1       0.1463821224E+08      0.1214408400E+09      0.2764439578E+09     -0.2819655265E+05
          0                76          21             1   79     1      -0.1238476345E+05      40   54    1       0.6430208721E+07      0.5334767872E+08      0.1214408400E+09     -0.1238476345E+05
          0                77          21             1   79     1      -0.5440600805E+04      40   54    1       0.2823635960E+07      0.2342563087E+08      0.5334767872E+08     -0.5440600805E+04
          0                78          21             1   79     1      -0.2388708563E+04      40   54    1       0.1239774667E+07      0.1028569397E+08      0.2342563087E+08     -0.2388708563E+04
          0                79          21             1   79     1      -0.9994232546E+03      40   54    1       0.5441716587E+06      0.4514619065E+07      0.1028569397E+08     -0.9994232546E+03
                                                   Max.-Head-Change                        Max.-Flux-Residual
  Residual-Control   Outer-Iter.   Inner-Iter.     Column Row Layer    Max.-Head-Change    Column Row Layer    Max.-Flux-Residual            L2-New               L2-Old           Solver-Max-Delh
          0                80          21             1   79     1      -0.4482783120E+03      40   54    1       0.2327716077E+06      0.1925402951E+07      0.4514619065E+07     -0.4482783120E+03
          0                81          21             1   65     1      -0.2044308611E+03      40   54    1       0.1017053922E+06      0.8447979974E+06      0.1925402951E+07     -0.2044308611E+03
          0                82          17             6   65     1      -0.1006849043E+03      40   54    1       0.4537186213E+05      0.3763305511E+06      0.8447979974E+06     -0.1006849043E+03
          0                83          17             3   80     1      -0.3464022873E+02      40   54    1       0.1219877873E+05      0.1038297987E+06      0.3763305511E+06     -0.3464022873E+02
          0                84          14             3   80     1      -0.2266871075E+02      40   54    1       0.6652457045E+04      0.5442230914E+05      0.1038297987E+06     -0.2266871075E+02
          0                85          12            26   49     1       0.1531409349E+02      40   54    1       0.3459225152E+04      0.2519036971E+05      0.5442230914E+05      0.1531409349E+02
          0                86          14            20   54     1       0.1873102585E+02      40   54    1       0.1737481798E+04      0.1086369169E+05      0.2519036971E+05      0.1873102585E+02
          0                87          13            20   54     1       0.9576160571E+01      18   26    1       0.6736727222E+03      0.3893371287E+04      0.1086369169E+05      0.9576160571E+01
          0                88          12            18   48     1       0.1619522804E+02      18   26    1       0.2958146818E+03      0.1662372239E+04      0.3893371287E+04      0.1619522804E+02
          0                89           9             4   80     1       0.9953393126E+02      18   48    1      -0.3961190055E+03      0.1166621338E+04      0.1662372239E+04      0.9953393126E+02
                                                   Max.-Head-Change                        Max.-Flux-Residual
  Residual-Control   Outer-Iter.   Inner-Iter.     Column Row Layer    Max.-Head-Change    Column Row Layer    Max.-Flux-Residual            L2-New               L2-Old           Solver-Max-Delh
          1                89           0             4   80     1       0.5972035876E+02       4   80    1      -0.1308707792E+05      0.2382848532E+05      0.1166621338E+04      0.9953393126E+02
          2                89           0             4   80     1       0.3583221525E+02       4   80    1      -0.4686368178E+04      0.8569010433E+04      0.2382848532E+05      0.9953393126E+02
          3                89           0             4   80     1       0.2149932915E+02       4   80    1      -0.1671902390E+04      0.3181857505E+04      0.8569010433E+04      0.9953393126E+02
          0                90           8            50   67     1       0.6815231045E+02       4   80    1      -0.5925685383E+03      0.1483264119E+04      0.3181857505E+04      0.6815231045E+02
          1                90           0            50   67     1       0.4089138627E+02      50   67    1      -0.1836545986E+05      0.2526426797E+05      0.1483264119E+04      0.6815231045E+02
          2                90           0            50   67     1       0.2453483176E+02      50   67    1      -0.6604479036E+04      0.9124340375E+04      0.2526426797E+05      0.6815231045E+02
          3                90           0            50   67     1       0.1472089906E+02      50   67    1      -0.2373360626E+04      0.3454763437E+04      0.9124340375E+04      0.6815231045E+02
          0                91           4            39   46     1       0.3436176712E+02      50   67    1      -0.8518588096E+03      0.1732742129E+04      0.3454763437E+04      0.3436176712E+02
          1                91           0            47   19     1       0.1955753394E+02      47   19    1      -0.4091466144E+04      0.4978898765E+04      0.1732742129E+04      0.3436176712E+02
          0                92           3            40   44     1       0.3377787701E+03      47   19    1      -0.1470404416E+04      0.2069334458E+04      0.4978898765E+04      0.3377787701E+03
                                                   Max.-Head-Change                        Max.-Flux-Residual
  Residual-Control   Outer-Iter.   Inner-Iter.     Column Row Layer    Max.-Head-Change    Column Row Layer    Max.-Flux-Residual            L2-New               L2-Old           Solver-Max-Delh
          0                93          11            63   65     1       0.6047444136E+02      47   19    1      -0.6767487370E+03      0.1055560556E+04      0.2069334458E+04      0.6047444136E+02
          1                93           0            63   65     1       0.3628466481E+02      63   65    1      -0.1460453193E+05      0.1635065205E+05      0.1055560556E+04      0.6047444136E+02
          2                93           0            63   65     1       0.2177079889E+02      63   65    1      -0.5259610573E+04      0.5929864984E+04      0.1635065205E+05      0.6047444136E+02
          3                93           0            63   65     1       0.1306247933E+02      63   65    1      -0.1894647214E+04      0.2281640241E+04      0.5929864984E+04      0.6047444136E+02
          0                94          11            40   45     1       0.1074233215E+03      63   65    1      -0.6827854028E+03      0.1198450806E+04      0.2281640241E+04      0.1074233215E+03
          1                94           0            40   45     1       0.6445399289E+02      40   45    1      -0.4579459127E+05      0.5195664354E+05      0.1198450806E+04      0.1074233215E+03
          2                94           0            40   45     1       0.3867239574E+02      40   45    1      -0.1648536611E+05      0.1871778303E+05      0.5195664354E+05      0.1074233215E+03
          3                94           0            40   45     1       0.2320343744E+02      40   45    1      -0.5934319763E+04      0.6797341677E+04      0.1871778303E+05      0.1074233215E+03
          4                94           0            40   45     1       0.1392206246E+02      40   45    1      -0.2136107886E+04      0.2639285877E+04      0.6797341677E+04      0.1074233215E+03
          0                95           6            57   35     1       0.3431399211E+02      40   45    1      -0.7688504958E+03      0.1412178153E+04      0.2639285877E+04      0.3431399211E+02
                                                   Max.-Head-Change                        Max.-Flux-Residual
  Residual-Control   Outer-Iter.   Inner-Iter.     Column Row Layer    Max.-Head-Change    Column Row Layer    Max.-Flux-Residual            L2-New               L2-Old           Solver-Max-Delh
          1                95           0            57   35     1       0.2058839526E+02      57   35    1      -0.4583531286E+04      0.5233377088E+04      0.1412178153E+04      0.3431399211E+02
          0                96           4            41   46     1       0.2573747607E+03      57   35    1      -0.1633475858E+04      0.2071785767E+04      0.5233377088E+04      0.2573747607E+03
          1                96           0            41   46     1       0.1544248564E+03      41   46    1      -0.1566992656E+06      0.2046216154E+06      0.2071785767E+04      0.2573747607E+03
          2                96           0            41   46     1       0.9265491385E+02      41   46    1      -0.8956925749E+05      0.1076031112E+06      0.2046216154E+06      0.2573747607E+03
          3                96           0            41   46     1       0.5559294831E+02      41   46    1      -0.3215571515E+05      0.3869860749E+05      0.1076031112E+06      0.2573747607E+03
          4                96           0            41   46     1       0.3335576899E+02      41   46    1      -0.1152252742E+05      0.1401139541E+05      0.3869860749E+05      0.2573747607E+03
          5                96           0            41   46     1       0.2001346139E+02      41   46    1      -0.4115992335E+04      0.5356993903E+04      0.1401139541E+05      0.2573747607E+03
          0                97           3            78   28     1       0.3967084225E+02      57   35    1      -0.1559570954E+04      0.2686156512E+04      0.5356993903E+04      0.3967084225E+02
          1                97           0            78   28     1       0.2380250535E+02      78   28    1      -0.5211478334E+04      0.7290315227E+04      0.2686156512E+04      0.3967084225E+02
          0                98           3            74   65     1       0.6592991701E+02      78   28    1      -0.1860431702E+04      0.3147289400E+04      0.7290315227E+04      0.6592991701E+02
                                                   Max.-Head-Change                        Max.-Flux-Residual
  Residual-Control   Outer-Iter.   Inner-Iter.     Column Row Layer    Max.-Head-Change    Column Row Layer    Max.-Flux-Residual            L2-New               L2-Old           Solver-Max-Delh
          1                98           0            66   61     1       0.3672923549E+02      66   61    1      -0.1436652565E+05      0.1620132086E+05      0.3147289400E+04      0.6592991701E+02
          0                99           2            80   27     1       0.3166727581E+02      66   61    1      -0.5170933192E+04      0.6187465475E+04      0.1620132086E+05      0.3166727581E+02
          0               100           2            76   22     1       0.6239588031E+02      80   27    1      -0.2985527693E+04      0.4773614516E+04      0.6187465475E+04      0.6239588031E+02
          0               101           2            66   69     1       0.1098915722E+03      72   64    1      -0.2784091480E+04      0.4692476373E+04      0.4773614516E+04      0.1098915722E+03
          1               101           0            66   69     1       0.4395662930E+02      39   54    1      -0.1686316156E+05      0.1899914436E+05      0.4692476373E+04      0.1098915722E+03
          0               102           2            43   34     1       0.9451054723E+03      39   54    1      -0.6071816116E+04      0.7546529832E+04      0.1899914436E+05      0.9451054723E+03
          1               102           0            43   34     1       0.3780421892E+03      74   65    1      -0.2605538644E+05      0.3911045247E+05      0.7546529832E+04      0.9451054723E+03
          0               103           2            67   70     1       0.1064693155E+03      74   65    1      -0.9360559432E+04      0.1502498508E+05      0.3911045247E+05      0.1064693155E+03
          0               104           2            58   12     1       0.1051642968E+03      74   65    1      -0.5010331616E+04      0.1070878879E+05      0.1502498508E+05      0.1051642968E+03
          1               104           0            58   12     1       0.6309857806E+02      58   12    1      -0.4418814576E+05      0.6017635465E+05      0.1070878879E+05      0.1051642968E+03
                                                   Max.-Head-Change                        Max.-Flux-Residual
  Residual-Control   Outer-Iter.   Inner-Iter.     Column Row Layer    Max.-Head-Change    Column Row Layer    Max.-Flux-Residual            L2-New               L2-Old           Solver-Max-Delh
          2               104           0            58   12     1       0.3785914683E+02      58   12    1      -0.1590650074E+05      0.2284177566E+05      0.6017635465E+05      0.1051642968E+03
          0               105           2            69   61     1       0.1877562308E+03      58   12    1      -0.5725601214E+04      0.1170008705E+05      0.2284177566E+05      0.1877562308E+03
          1               105           0            53   21     1       0.8906507610E+02      53   21    1      -0.5381180383E+05      0.8794170480E+05      0.1170008705E+05      0.1877562308E+03
          2               105           0            53   21     1       0.5343904566E+02      53   21    1      -0.1935680632E+05      0.3261668998E+05      0.8794170480E+05      0.1877562308E+03
          0               106           3            76   71     1       0.4480445605E+02      53   21    1      -0.6959184515E+04      0.1482928571E+05      0.3261668998E+05      0.4480445605E+02
          0               107           3            57   27     1       0.1014352926E+04      53   21    1      -0.4144226932E+04      0.8611554551E+04      0.1482928571E+05      0.1014352926E+04
          0               108           4            57   27     1       0.1390696614E+04      11   63    1      -0.3356916438E+04      0.7207867785E+04      0.8611554551E+04      0.1390696614E+04
          0               109           7            57   27     1       0.7541777903E+03      11   63    1      -0.1795967309E+04      0.3933525429E+04      0.7207867785E+04      0.7541777903E+03
          0               110           3            52   15     1       0.3188850346E+03      62   20    1      -0.2466620578E+04      0.3492419477E+04      0.3933525429E+04      0.3188850346E+03
          1               110           0            52   15     1       0.1275540143E+03      55   24    1      -0.3107942451E+05      0.3514262512E+05      0.3492419477E+04      0.3188850346E+03
                                                   Max.-Head-Change                        Max.-Flux-Residual
  Residual-Control   Outer-Iter.   Inner-Iter.     Column Row Layer    Max.-Head-Change    Column Row Layer    Max.-Flux-Residual            L2-New               L2-Old           Solver-Max-Delh
          2               110           0            52   15     1       0.5102160573E+02      55   24    1      -0.1119106676E+05      0.1291497083E+05      0.3514262512E+05      0.3188850346E+03
          0               111           3            48   25     1       0.9855230524E+02      55   24    1      -0.4027841751E+04      0.5440365270E+04      0.1291497083E+05      0.9855230524E+02
          1               111           0            48   25     1       0.5913138315E+02      48   25    1      -0.3176663525E+05      0.3615348201E+05      0.5440365270E+04      0.9855230524E+02
          2               111           0            48   25     1       0.3547882989E+02      48   25    1      -0.1141551923E+05      0.1359508458E+05      0.3615348201E+05      0.9855230524E+02
          0               112           3            51   14     1       0.4021175746E+02      48   25    1      -0.4097305420E+04      0.6582341112E+04      0.1359508458E+05      0.4021175746E+02
          0               113           3            76   66     1       0.3437426496E+03      55   24    1      -0.2221965630E+04      0.3825455687E+04      0.6582341112E+04      0.3437426496E+03
          0               114           5            76   66     1       0.1201933508E+03      55   24    1      -0.1417214328E+04      0.2258843831E+04      0.3825455687E+04      0.1201933508E+03
          1               114           0            76   66     1       0.4807734075E+02      53   70    1      -0.1340624924E+05      0.1556382564E+05      0.2258843831E+04      0.1201933508E+03
          2               114           0            53   70     1       0.2104298907E+02      53   70    1      -0.4822298224E+04      0.5825787626E+04      0.1556382564E+05      0.1201933508E+03
          0               115           4            56   67     1       0.2924699537E+03      53   70    1      -0.1733653078E+04      0.2763772806E+04      0.5825787626E+04      0.2924699537E+03
                                                   Max.-Head-Change                        Max.-Flux-Residual
  Residual-Control   Outer-Iter.   Inner-Iter.     Column Row Layer    Max.-Head-Change    Column Row Layer    Max.-Flux-Residual            L2-New               L2-Old           Solver-Max-Delh
          0               116           6            77   66     1       0.9221385457E+03      53   70    1      -0.7830869901E+03      0.1471404843E+04      0.2763772806E+04      0.9221385457E+03
          1               116           0            77   66     1       0.3688554187E+03      42   11    1      -0.2530612019E+04      0.3510318960E+04      0.1471404843E+04      0.9221385457E+03
          0               117           7            77   66     1       0.1804286071E+03      42   11    1      -0.9094956894E+03      0.1613178336E+04      0.3510318960E+04      0.1804286071E+03
          0               118           7            77   66     1       0.2210323112E+04      42   11    1      -0.5297140627E+03      0.1168184025E+04      0.1613178336E+04      0.2210323112E+04
          0               119          11            77   66     1       0.1559474412E+04      42   11    1      -0.3061354422E+03      0.7005784675E+03      0.1168184025E+04      0.1559474412E+04
          1               119           0            77   66     1       0.6237897651E+03      44   19    1      -0.7474499218E+05      0.9342742532E+05      0.7005784675E+03      0.1559474412E+04
          2               119           0            77   66     1       0.2495159060E+03      44   19    1      -0.2798505844E+05      0.3469946044E+05      0.9342742532E+05      0.1559474412E+04
          3               119           0            77   66     1       0.9980636241E+02      44   19    1      -0.1006992715E+05      0.1249310034E+05      0.3469946044E+05      0.1559474412E+04
          4               119           0            77   66     1       0.3992254497E+02      44   19    1      -0.3622357465E+04      0.4530390487E+04      0.1249310034E+05      0.1559474412E+04
          5               119           0            77   66     1       0.1596901799E+02      44   19    1      -0.1302358931E+04      0.1741238914E+04      0.4530390487E+04      0.1559474412E+04
                                                   Max.-Head-Change                        Max.-Flux-Residual
  Residual-Control   Outer-Iter.   Inner-Iter.     Column Row Layer    Max.-Head-Change    Column Row Layer    Max.-Flux-Residual            L2-New               L2-Old           Solver-Max-Delh
          0               120          10            51   13     1       0.9129905656E+02      44   19    1      -0.4678353894E+03      0.8902085790E+03      0.1741238914E+04      0.9129905656E+02
          1               120           0            51   13     1       0.3651962288E+02      58   37    1      -0.7351714343E+04      0.1003427326E+05      0.8902085790E+03      0.9129905656E+02
          2               120           0            58   37     1       0.1549739654E+02      58   37    1      -0.2628009903E+04      0.3652177636E+04      0.1003427326E+05      0.9129905656E+02
          0               121           4            47   18     1       0.2283108445E+03      58   37    1      -0.9349195774E+03      0.1488888644E+04      0.3652177636E+04      0.2283108445E+03
          0               122           4            47   18     1       0.4879930322E+03      68   58    1      -0.7379323351E+03      0.1627787512E+04      0.1488888644E+04      0.4879930322E+03
          0               123           5            59   39     1       0.1126845160E+04      68   58    1      -0.5300785139E+03      0.1061850584E+04      0.1627787512E+04      0.1126845160E+04
          0               124           8            59   39     1       0.2521281735E+04      45   17    1      -0.4044761110E+03      0.9025759087E+03      0.1061850584E+04      0.2521281735E+04
          1               124           0            59   39     1       0.1008512695E+04      50   24    1      -0.8259711995E+04      0.1248193079E+05      0.9025759087E+03      0.2521281735E+04
          2               124           0            59   39     1       0.4034050778E+03      50   24    1      -0.2969339190E+04      0.4536956677E+04      0.1248193079E+05      0.2521281735E+04
          0               125           3            68   60     1       0.9371209466E+02      50   24    1      -0.1066467901E+04      0.1788680320E+04      0.4536956677E+04      0.9371209466E+02
                                                   Max.-Head-Change                        Max.-Flux-Residual
  Residual-Control   Outer-Iter.   Inner-Iter.     Column Row Layer    Max.-Head-Change    Column Row Layer    Max.-Flux-Residual            L2-New               L2-Old           Solver-Max-Delh
          1               125           0            68   60     1       0.3748483812E+02      66   56    1      -0.9951942822E+04      0.1119620325E+05      0.1788680320E+04      0.9371209466E+02
          2               125           0            66   56     1       0.1811668524E+02      66   56    1      -0.3585314567E+04      0.4264672293E+04      0.1119620325E+05      0.9371209466E+02
          0               126           2            72   61     1       0.8842755719E+01      66   56    1      -0.1292282285E+04      0.2143599418E+04      0.4264672293E+04      0.8842755719E+01
          0               127           3            72   61     1       0.1750959394E+03      66   56    1      -0.9672234270E+03      0.1535000320E+04      0.2143599418E+04      0.1750959394E+03
          0               128           3            72   61     1       0.2953362594E+03      66   56    1      -0.7234267890E+03      0.1105653191E+04      0.1535000320E+04      0.2953362594E+03
          0               129           8            72   61     1       0.2737093415E+03      66   56    1      -0.5413036082E+03      0.1018224590E+04      0.1105653191E+04      0.2737093415E+03
          0               130           7            80   25     1       0.6386819185E+02      66   56    1      -0.4041474676E+03      0.6943298200E+03      0.1018224590E+04      0.6386819185E+02
          0               131           8            53   21     1       0.4423833081E+03      66   56    1      -0.3030036885E+03      0.4992245763E+03      0.6943298200E+03      0.4423833081E+03
          0               132          18            51   26     1       0.1881214046E+03      66   56    1      -0.2274327351E+03      0.3564018874E+03      0.4992245763E+03      0.1881214046E+03
          0               133          17            51   26     1       0.3749869844E+03      66   56    1      -0.1701307912E+03      0.2547479270E+03      0.3564018874E+03      0.3749869844E+03
                                                   Max.-Head-Change                        Max.-Flux-Residual
  Residual-Control   Outer-Iter.   Inner-Iter.     Column Row Layer    Max.-Head-Change    Column Row Layer    Max.-Flux-Residual            L2-New               L2-Old           Solver-Max-Delh
          0               134          18            51   26     1       0.4810987832E+03      66   56    1      -0.1267947526E+03      0.2207424381E+03      0.2547479270E+03      0.4810987832E+03
          1               134           0            51   26     1       0.1924395138E+03      67   58    1      -0.6780110454E+03      0.7731548600E+03      0.2207424381E+03      0.4810987832E+03
          0               135           4            44   21     1       0.1247312879E+02      67   58    1      -0.2392515362E+03      0.3219578782E+03      0.7731548600E+03      0.1247312879E+02
          0               136           7            44   60     1       0.1332657009E+03      67   58    1      -0.1607314568E+03      0.3047845541E+03      0.3219578782E+03      0.1332657009E+03
          0               137          19            44   60     1       0.7307300863E+02      67   58    1      -0.1074721523E+03      0.1910111469E+03      0.3047845541E+03      0.7307300863E+02
          0               138          24            44   17     1       0.5796960266E+02      67   58    1      -0.7146617999E+02      0.1209670669E+03      0.1910111469E+03      0.5796960266E+02
          0               139          13            44   24     1       0.2799729448E+03      46   22    1      -0.6042668403E+02      0.1376666413E+03      0.1209670669E+03      0.2799729448E+03
          1               139           0            44   24     1       0.1119891784E+03      44   17    1      -0.2051768408E+04      0.3670145752E+04      0.1376666413E+03      0.2799729448E+03
          2               139           0            44   24     1       0.4479567136E+02      44   17    1      -0.7327128754E+03      0.1319796821E+04      0.3670145752E+04      0.2799729448E+03
          3               139           0            44   24     1       0.1791826855E+02      44   17    1      -0.2602225838E+03      0.4852680067E+03      0.1319796821E+04      0.2799729448E+03
                                                   Max.-Head-Change                        Max.-Flux-Residual
  Residual-Control   Outer-Iter.   Inner-Iter.     Column Row Layer    Max.-Head-Change    Column Row Layer    Max.-Flux-Residual            L2-New               L2-Old           Solver-Max-Delh
          0               140           4            66   52     1       0.8291629279E+01      44   17    1      -0.9154789885E+02      0.2101717593E+03      0.4852680067E+03      0.8291629279E+01
          0               141           4            13   69     1       0.7587403484E+01      66   52    1      -0.2227654677E+03      0.4019475971E+03      0.2101717593E+03      0.7587403484E+01
          0               142           4            69   64     1       0.8516660851E+01      13   69    1      -0.2212648883E+03      0.4362252853E+03      0.4019475971E+03      0.8516660851E+01
          0               143           3            69   64     1       0.8571397319E+01      13   69    1      -0.1424990486E+03      0.3030144475E+03      0.4362252853E+03      0.8571397319E+01
          0               144           3            44   21     1       0.1364576473E+03      46   25    1      -0.2222101789E+03      0.4140668563E+03      0.3030144475E+03      0.1364576473E+03
          0               145           3            44   21     1       0.9531616828E+02      46   25    1      -0.1516062023E+03      0.2884846973E+03      0.4140668563E+03      0.9531616828E+02
          0               146           4            44   21     1       0.6988036760E+02      46   25    1      -0.1024568872E+03      0.2004150537E+03      0.2884846973E+03      0.6988036760E+02
          0               147           4            44   21     1       0.3647489208E+02      46   25    1      -0.6879736420E+02      0.1392396593E+03      0.2004150537E+03      0.3647489208E+02
          0               148           4            43   22     1       0.1072191820E+02      46   25    1      -0.4590556095E+02      0.9690985464E+02      0.1392396593E+03      0.1072191820E+02
          0               149           5            47   16     1       0.3764932478E+02      67   56    1      -0.6365373041E+02      0.9816008654E+02      0.9690985464E+02      0.3764932478E+02
                                                   Max.-Head-Change                        Max.-Flux-Residual
  Residual-Control   Outer-Iter.   Inner-Iter.     Column Row Layer    Max.-Head-Change    Column Row Layer    Max.-Flux-Residual            L2-New               L2-Old           Solver-Max-Delh
          0               150           4            56   64     1       0.8572475549E+01      26   33    1      -0.1003537646E+03      0.1630539289E+03      0.9816008654E+02      0.8572475549E+01
          0               151           4            68   53     1       0.2732155161E+02      26   33    1      -0.5622570613E+02      0.9816838495E+02      0.1630539289E+03      0.2732155161E+02
          1               151           0            68   53     1       0.1092862114E+02      48   22    1      -0.1889786584E+03      0.2193742363E+03      0.9816838495E+02      0.2732155161E+02
          0               152           4            47   28     1       0.2769351839E+03      48   22    1      -0.6578965120E+02      0.1039094656E+03      0.2193742363E+03      0.2769351839E+03
          0               153           5            47   28     1       0.3526725792E+03      48   22    1      -0.4925060018E+02      0.7255896799E+02      0.1039094656E+03      0.3526725792E+03
          0               154           5            47   28     1       0.1547204640E+03      68   52    1      -0.4862260843E+02      0.7289233804E+02      0.7255896799E+02      0.1547204640E+03
          0               155           5            47   28     1       0.1055470112E+03      68   52    1      -0.3831609319E+02      0.5776169506E+02      0.7289233804E+02      0.1055470112E+03
          0               156          10            47   28     1       0.6376875994E+02      68   52    1      -0.3018778819E+02      0.4380735309E+02      0.5776169506E+02      0.6376875994E+02
          0               157          14            47   28     1       0.1569195731E+02      68   52    1      -0.2377774089E+02      0.3338413191E+02      0.4380735309E+02      0.1569195731E+02
          0               158          17            46   29     1       0.2679771452E+02      68   52    1      -0.1834464371E+02      0.2532174397E+02      0.3338413191E+02      0.2679771452E+02
                                                   Max.-Head-Change                        Max.-Flux-Residual
  Residual-Control   Outer-Iter.   Inner-Iter.     Column Row Layer    Max.-Head-Change    Column Row Layer    Max.-Flux-Residual            L2-New               L2-Old           Solver-Max-Delh
          1               158           0            47   28     1       0.1202326684E+02      47   28    1      -0.1474028388E+04      0.1654723446E+04      0.2532174397E+02      0.2679771452E+02
          2               158           0            47   28     1       0.7213960107E+01      47   28    1      -0.5235434186E+03      0.5884809941E+03      0.1654723446E+04      0.2679771452E+02
          3               158           0            47   28     1       0.4328376064E+01      47   28    1      -0.1842118537E+03      0.2085343090E+03      0.5884809941E+03      0.2679771452E+02
          4               158           0            47   28     1       0.2597025639E+01      47   28    1      -0.6375830472E+02      0.7592427380E+02      0.2085343090E+03      0.2679771452E+02
          0               159          16            25   65     1       0.1597882662E+01      47   28    1      -0.2141851571E+02      0.3470566932E+02      0.7592427380E+02      0.1597882662E+01
          0               160           4            13   46     1       0.1533516169E+01      47   28    1      -0.1527921565E+02      0.2766037787E+02      0.3470566932E+02      0.1533516169E+01
          0               161          13            56   62     1       0.1200816423E+01      47   28    1      -0.1090819303E+02      0.2298158206E+02      0.2766037787E+02      0.1200816423E+01
          0               162          15            56   62     1       0.3476071119E+01      68   52    1      -0.8254539703E+01      0.1632093088E+02      0.2298158206E+02      0.3476071119E+01
          1               162           0            56   62     1       0.2085642671E+01      56   62    1      -0.4307995698E+02      0.7535703884E+02      0.1632093088E+02      0.3476071119E+01
          0               163           5            46   29     1       0.1002574738E+02      56   62    1      -0.1437590969E+02      0.2854368146E+02      0.7535703884E+02      0.1002574738E+02
                                                   Max.-Head-Change                        Max.-Flux-Residual
  Residual-Control   Outer-Iter.   Inner-Iter.     Column Row Layer    Max.-Head-Change    Column Row Layer    Max.-Flux-Residual            L2-New               L2-Old           Solver-Max-Delh
          0               164           3            59   58     1       0.2887843323E+01      49   27    1      -0.2264794425E+02      0.3249916094E+02      0.2854368146E+02      0.2887843323E+01
          0               165           4            59   58     1       0.3419633147E+01      49   27    1      -0.1687821822E+02      0.2372919037E+02      0.3249916094E+02      0.3419633147E+01
          0               166           4            13   40     1       0.3438867542E+01      49   27    1      -0.1252182438E+02      0.1733080128E+02      0.2372919037E+02      0.3438867542E+01
          0               167          14            13   40     1       0.1200709950E+02      49   27    1      -0.9239682009E+01      0.1264205205E+02      0.1733080128E+02      0.1200709950E+02
          0               168          13            13   40     1       0.1508295463E+02      49   27    1      -0.6744266667E+01      0.1161319433E+02      0.1264205205E+02      0.1508295463E+02
          0               169          16            13   40     1       0.4436603013E+01      44   33    1      -0.4930552958E+01      0.8740013044E+01      0.1161319433E+02      0.4436603013E+01
          0               170          22            13   40     1       0.2677218579E+01      44   33    1      -0.3918122284E+01      0.6914780578E+01      0.8740013044E+01      0.2677218579E+01
          1               170           0            13   40     1       0.1606331147E+01      13   40    1      -0.2305863168E+02      0.2676013702E+02      0.6914780578E+01      0.2677218579E+01
          0               171           4            25   63     1       0.3414262530E+01      13   40    1      -0.7711364209E+01      0.1066395190E+02      0.2676013702E+02      0.3414262530E+01
          0               172          14            25   63     1       0.5467159347E+01      13   40    1      -0.5561653614E+01      0.8263715559E+01      0.1066395190E+02      0.5467159347E+01
                                                   Max.-Head-Change                        Max.-Flux-Residual
  Residual-Control   Outer-Iter.   Inner-Iter.     Column Row Layer    Max.-Head-Change    Column Row Layer    Max.-Flux-Residual            L2-New               L2-Old           Solver-Max-Delh
          0               173           3            26   16     1       0.9287503092E+00      13   44    1      -0.1051743378E+02      0.1364082862E+02      0.8263715559E+01      0.9287503092E+00
          0               174           4            68   53     1       0.1001959448E+01      13   44    1      -0.6603283272E+01      0.9434282019E+01      0.1364082862E+02      0.1001959448E+01
          0               175           5            13   42     1       0.1161802499E+01      68   53    1      -0.4788594791E+01      0.8461458508E+01      0.9434282019E+01      0.1161802499E+01
          0               176          15            13   42     1       0.2163926710E+01      68   53    1      -0.3929865334E+01      0.6463013029E+01      0.8461458508E+01      0.2163926710E+01
          0               177          15            13   42     1       0.4009018247E+01      68   53    1      -0.3224543568E+01      0.4980131023E+01      0.6463013029E+01      0.4009018247E+01
          0               178          16            13   42     1       0.7398576406E+01      68   53    1      -0.2642828885E+01      0.3868120519E+01      0.4980131023E+01      0.7398576406E+01
          0               179          15            13   42     1       0.7600249400E+01      68   53    1      -0.2159438041E+01      0.3048697220E+01      0.3868120519E+01      0.7600249400E+01
          0               180          16            13   42     1       0.3860696128E+01      68   53    1      -0.1758560510E+01      0.2425272848E+01      0.3048697220E+01      0.3860696128E+01
          0               181          16            13   45     1       0.2368573003E+01      68   53    1      -0.1427641649E+01      0.2274876029E+01      0.2425272848E+01      0.2368573003E+01
          1               181           0            13   45     1       0.1421143802E+01      13   45    1      -0.1996052135E+02      0.2308297053E+02      0.2274876029E+01      0.2368573003E+01
                                                   Max.-Head-Change                        Max.-Flux-Residual
  Residual-Control   Outer-Iter.   Inner-Iter.     Column Row Layer    Max.-Head-Change    Column Row Layer    Max.-Flux-Residual            L2-New               L2-Old           Solver-Max-Delh
          2               181           0            13   45     1       0.8526862811E+00      13   45    1      -0.7576378264E+01      0.9053748331E+01      0.2308297053E+02      0.2368573003E+01
          0               182           4            13   45     1      -0.2054279940E+00      13   45    1      -0.3082853010E+01      0.4183335655E+01      0.9053748331E+01     -0.2054279940E+00
          0               183           9            13   49     1       0.3100127197E+00      13   45    1      -0.1967750102E+01      0.2826769346E+01      0.4183335655E+01      0.3100127197E+00
          0               184          15            13   45     1      -0.1267997450E+00      13   45    1      -0.1253935636E+01      0.2192660010E+01      0.2826769346E+01     -0.1267997450E+00
          0               185          16            26   17     1       0.2503444432E+00      13   45    1      -0.7972006849E+00      0.1572550828E+01      0.2192660010E+01      0.2503444432E+00
          0               186          16            68   54     1       0.1209281388E+01      68   53    1      -0.5709722668E+00      0.1186625743E+01      0.1572550828E+01      0.1209281388E+01
          1               186           0            68   54     1       0.7255688328E+00      68   54    1      -0.6517605606E+01      0.7787175832E+01      0.1186625743E+01      0.1209281388E+01
          2               186           0            68   54     1       0.4353412997E+00      68   54    1      -0.2845356082E+01      0.3592862604E+01      0.7787175832E+01      0.1209281388E+01
          0               187          12            13   43     1       0.7527239935E+00      68   54    1      -0.1322496022E+01      0.1967437242E+01      0.3592862604E+01      0.7527239935E+00
          0               188           4            13   43     1      -0.1595770299E+00      13   43    1      -0.2320482812E+01      0.3159745471E+01      0.1967437242E+01     -0.1595770299E+00
                                                   Max.-Head-Change                        Max.-Flux-Residual
  Residual-Control   Outer-Iter.   Inner-Iter.     Column Row Layer    Max.-Head-Change    Column Row Layer    Max.-Flux-Residual            L2-New               L2-Old           Solver-Max-Delh
          0               189           5            13   46     1       0.1562103375E+01      13   43    1      -0.1541875752E+01      0.2221407417E+01      0.3159745471E+01      0.1562103375E+01
          1               189           0            13   46     1       0.9372620247E+00      13   46    1      -0.9276239603E+01      0.1095644481E+02      0.2221407417E+01      0.1562103375E+01
          2               189           0            13   46     1       0.5623572148E+00      13   46    1      -0.3800113197E+01      0.4858983276E+01      0.1095644481E+02      0.1562103375E+01
          0               190           4            13   41     1       0.8777444619E+00      13   46    1      -0.1644018961E+01      0.2811424101E+01      0.4858983276E+01      0.8777444619E+00
          0               191           4            26   18     1       0.2665045505E+00      13   41    1      -0.2657600973E+01      0.3730010175E+01      0.2811424101E+01      0.2665045505E+00
          0               192           5            13   41     1      -0.1130695992E+00      13   41    1      -0.1979740439E+01      0.2886864615E+01      0.3730010175E+01     -0.1130695992E+00
          0               193           5            13   41     1      -0.9783982680E-01      13   41    1      -0.1471479014E+01      0.2149042636E+01      0.2886864615E+01     -0.9783982680E-01
          0               194           5            13   44     1       0.1884701063E+01      13   41    1      -0.1091186857E+01      0.1603625865E+01      0.2149042636E+01      0.1884701063E+01
          0               195          15            13   44     1       0.9671569941E+00      13   41    1      -0.8057810503E+00      0.1198921596E+01      0.1603625865E+01      0.9671569941E+00
          0               196          17            13   44     1       0.1872807340E+00      13   41    1      -0.5925862950E+00      0.8993097544E+00      0.1198921596E+01      0.1872807340E+00
                                                   Max.-Head-Change                        Max.-Flux-Residual
  Residual-Control   Outer-Iter.   Inner-Iter.     Column Row Layer    Max.-Head-Change    Column Row Layer    Max.-Flux-Residual            L2-New               L2-Old           Solver-Max-Delh
          0               197          16            13   42     1       0.5623114789E-01      13   41    1      -0.4341122514E+00      0.7708939393E+00      0.8993097544E+00      0.5623114789E-01
          0               198          17            13   42     1       0.5368234665E-01      13   41    1      -0.3161945855E+00      0.5734380474E+00      0.7708939393E+00      0.5368234665E-01
          0               199          16            13   42     1       0.4910506358E-01      13   41    1      -0.2289682705E+00      0.4347813153E+00      0.5734380474E+00      0.4910506358E-01
          0               200          21            13   41     1      -0.3420111069E-01      13   41    1      -0.1717679124E+00      0.3357321433E+00      0.4347813153E+00     -0.3420111069E-01
          0               201          24            13   41     1      -0.2772450693E-01      13   41    1      -0.1267465349E+00      0.2664170567E+00      0.3357321433E+00     -0.2772450693E-01
          0               202          24            13   41     1      -0.2280138465E-01      13   41    1      -0.9509344516E-01      0.2147205687E+00      0.2664170567E+00     -0.2280138465E-01
          0               203          25            13   41     1      -0.1851241526E-01      13   41    1      -0.7134618801E-01      0.1735136934E+00      0.2147205687E+00     -0.1851241526E-01
          0               204          23            13   41     1      -0.1483917598E-01      13   41    1      -0.5357449617E-01      0.1408678258E+00      0.1735136934E+00     -0.1483917598E-01
          0               205          21            13   41     1      -0.1192524698E-01      13   41    1      -0.4025379882E-01      0.1151669062E+00      0.1408678258E+00     -0.1192524698E-01
          0               206          21            13   41     1      -0.9468546390E-02      68   54    1      -0.3211651051E-01      0.9189354880E-01      0.1151669062E+00     -0.9468546390E-02
                                                   Max.-Head-Change                        Max.-Flux-Residual
  Residual-Control   Outer-Iter.   Inner-Iter.     Column Row Layer    Max.-Head-Change    Column Row Layer    Max.-Flux-Residual            L2-New               L2-Old           Solver-Max-Delh
          0               207          24            13   41     1      -0.7426787347E-02      68   54    1      -0.2614105582E-01      0.7506382885E-01      0.9189354880E-01     -0.7426787347E-02
          0               208          23            13   41     1      -0.5766472751E-02      68   54    1      -0.2127334448E-01      0.6110778332E-01      0.7506382885E-01     -0.5766472751E-02
          0               209          15            13   41     1      -0.4435759862E-02      68   54    1      -0.1730899156E-01      0.4965204502E-01      0.6110778332E-01     -0.4435759862E-02
          0               210          19            13   41     1      -0.3389197453E-02      68   54    1      -0.1408096649E-01      0.3914284626E-01      0.4965204502E-01     -0.3389197453E-02
          0               211          23            13   41     1      -0.2574430895E-02      68   54    1      -0.1145312881E-01      0.3091646980E-01      0.3914284626E-01     -0.2574430895E-02
          0               212          21            13   41     1      -0.1942921313E-02      68   54    1      -0.9314390475E-02      0.2480248662E-01      0.3091646980E-01     -0.1942921313E-02
          0               213          20            13   41     1      -0.1460451251E-02      68   54    1      -0.7573893051E-02      0.1982699483E-01      0.2480248662E-01     -0.1460451251E-02
          0               214          20            13   41     1      -0.1094418016E-02      68   54    1      -0.6157732981E-02      0.1581213833E-01      0.1982699483E-01     -0.1094418016E-02
          0               215          14            13   41     1      -0.8179229343E-03      68   54    1      -0.5005677685E-02      0.1265111431E-01      0.1581213833E-01     -0.8179229343E-03
          0               216          20            13   41     1      -0.6100522032E-03      68   54    1      -0.4068616342E-02      0.1015764345E-01      0.1265111431E-01     -0.6100522032E-03
                                                   Max.-Head-Change                        Max.-Flux-Residual
  Residual-Control   Outer-Iter.   Inner-Iter.     Column Row Layer    Max.-Head-Change    Column Row Layer    Max.-Flux-Residual            L2-New               L2-Old           Solver-Max-Delh
          0               217          17            13   41     1      -0.4542487867E-03      68   54    1      -0.3306533682E-02      0.8190611485E-02      0.1015764345E-01     -0.4542487867E-03
          0               218          14            13   41     1      -0.3378427729E-03      68   54    1      -0.2686842815E-02      0.6617637656E-02      0.8190611485E-02     -0.3378427729E-03
          0               219          14            13   41     1      -0.2510251695E-03      68   54    1      -0.2183010302E-02      0.5376580896E-02      0.6617637656E-02     -0.2510251695E-03
          0               220          14            13   41     1      -0.1863769910E-03      68   54    1      -0.1773429145E-02      0.4393233901E-02      0.5376580896E-02     -0.1863769910E-03
          0               221          17            13   41     1      -0.1383001297E-03      68   54    1      -0.1440514166E-02      0.3611586978E-02      0.4393233901E-02     -0.1383001297E-03
          0               222          17            14   50     1      -0.1073519895E-03      68   54    1      -0.1169950004E-02      0.2991298511E-02      0.3611586978E-02     -0.1073519895E-03
          0               223          13            14   50     1      -0.8603441029E-04      68   54    1      -0.9500875614E-03      0.2500353398E-02      0.2991298511E-02     -0.8603441029E-04
          0               224           4            68   54     1      -0.6345559101E-04      68   54    1      -0.7714483640E-03      0.2117605234E-02      0.2500353398E-02     -0.6345559101E-04
          0               225           4            68   54     1      -0.5154862125E-04      68   54    1      -0.6263000623E-03      0.1702260615E-02      0.2117605234E-02     -0.5154862125E-04
          0               226           3            68   54     1      -0.4187022544E-04      68   54    1      -0.5083978214E-03      0.1370385803E-02      0.1702260615E-02     -0.4187022544E-04
                                                   Max.-Head-Change                        Max.-Flux-Residual
  Residual-Control   Outer-Iter.   Inner-Iter.     Column Row Layer    Max.-Head-Change    Column Row Layer    Max.-Flux-Residual            L2-New               L2-Old           Solver-Max-Delh
          0               227           3            68   54     1      -0.3400404257E-04      68   54    1      -0.4126395061E-03      0.1103900185E-02      0.1370385803E-02     -0.3400404257E-04
          0               228           3            68   54     1      -0.2761203661E-04      68   54    1      -0.3348757591E-03      0.8904605989E-03      0.1103900185E-02     -0.2761203661E-04
          0               229           3            68   54     1      -0.2241869091E-04      68   54    1      -0.2717330467E-03      0.7193042215E-03      0.8904605989E-03     -0.2241869091E-04
          0               230           2            68   54     1      -0.1820022582E-04      68   54    1      -0.2204687691E-03      0.5819071492E-03      0.7193042215E-03     -0.1820022582E-04
[...]
        51.35       51.35       51.35       51.35       51.78       52.44       53.04       53.51       53.81       53.93    
        53.82       53.48       52.90       52.07       51.01       49.74       48.30       46.71       45.02       43.27    
        41.53       39.82       38.21       36.73       35.42       34.38       34.27       34.26       34.25       34.24    
        34.24       34.23       34.23       34.23       34.36       35.08       35.79       36.45       37.00       37.42    
        37.65       37.68       37.48       37.04       36.35       35.43       34.30       32.97       31.49       29.89    
        28.22       26.53       24.86       24.01       24.01       24.01       24.01       24.01       24.01       24.01    
  64    68.73       68.10       67.24       66.16       64.90       63.48       61.94       60.32       58.66       57.02    
        55.44       53.96       52.61       51.46       51.34       51.34       51.34       51.34       51.34       51.34    
        51.34       51.34       51.34       51.34       51.69       52.32       52.88       53.32       53.61       53.72    
        53.62       53.30       52.74       51.96       50.95       49.75       48.38       46.87       45.27       43.62    
        41.96       40.35       38.82       37.42       36.19       35.15       34.43       34.31       34.28       34.27    
        34.25       34.24       34.24       34.52       35.16       35.84       36.52       37.14       37.67       38.06    
        38.29       38.31       38.12       37.70       37.05       36.18       35.11       33.85       32.44       30.93    
        29.34       27.74       26.16       24.64       24.01       24.01       24.01       24.01       24.01       24.01    
  65    67.66       67.07       66.26       65.24       64.05       62.71       61.26       59.73       58.17       56.62    
        55.13       53.73       52.46       51.38       51.34       51.34       51.34       51.34       51.34       51.34    
        51.34       51.34       51.34       51.34       51.59       52.19       52.71       53.13       53.41       53.51    
        53.42       53.11       52.59       51.85       50.90       49.77       48.48       47.05       45.54       43.99    
        42.42       40.90       39.45       38.13       36.97       36.00       35.23       34.71       34.46       34.36    
        34.33       34.48       34.88       35.40       36.01       36.65       37.29       37.88       38.38       38.75    
        38.96       38.98       38.80       38.41       37.79       36.97       35.96       34.77       33.45       32.02    
        30.52       29.01       27.52       26.09       24.77       24.01       24.01       24.01       24.01       24.01    
  66    66.56       66.00       65.24       64.29       63.17       61.91       60.55       59.11       57.65       56.20    
        54.80       53.49       52.30       51.34       51.33       51.33       51.33       51.33       51.33       51.33    
        51.33       51.33       51.33       51.33       51.49       52.05       52.55       52.94       53.20       53.30    
        53.21       52.92       52.43       51.74       50.85       49.79       48.58       47.24       45.83       44.37    
        42.90       41.47       40.12       38.89       37.79       36.88       36.16       35.63       35.30       35.15    
        35.21       35.45       35.83       36.32       36.89       37.50       38.10       38.65       39.12       39.47    
        39.66       39.69       39.52       39.15       38.58       37.81       36.85       35.74       34.50       33.16    
        31.76       30.34       28.94       27.60       26.36       25.26       24.31       24.01       24.01       24.01    
  67    65.41       64.89       64.18       63.29       62.25       61.08       59.81       58.48       57.11       55.76    
        54.45       53.23       52.13       51.33       51.32       51.32       51.32       51.32       51.32       51.32    
        51.32       51.32       51.32       51.32       51.39       51.91       52.38       52.75       52.99       53.08    
        53.00       52.74       52.28       51.63       50.81       49.82       48.69       47.44       46.12       44.76    
        43.40       42.06       40.81       39.66       38.65       37.80       37.12       36.62       36.31       36.18    
        36.24       36.46       36.82       37.28       37.81       38.38       38.94       39.46       39.89       40.22    
        40.41       40.43       40.27       39.93       39.39       38.68       37.79       36.76       35.60       34.35    
        33.04       31.72       30.41       29.17       28.01       26.98       26.11       25.40       24.88       24.56    
  68    64.22       63.74       63.09       62.27       61.31       60.22       59.05       57.81       56.55       55.30    
        54.09       52.96       51.94       51.32       51.32       51.32       51.32       51.32       51.32       51.32    
        51.32       51.31       51.31       51.31       51.32       51.77       52.20       52.55       52.77       52.86    
        52.79       52.54       52.12       51.53       50.76       49.85       48.80       47.65       46.43       45.17    
        43.91       42.68       41.52       40.46       39.53       38.73       38.10       37.64       37.35       37.24    
        37.30       37.51       37.84       38.27       38.77       39.29       39.81       40.29       40.70       41.00    
        41.18       41.20       41.06       40.74       40.25       39.59       38.77       37.81       36.74       35.58    
        34.38       33.15       31.94       30.79       29.72       28.77       27.96       27.31       26.83       26.53    
  69    63.00       62.56       61.96       61.21       60.33       59.34       58.26       57.13       55.97       54.83    
        53.72       52.68       51.75       51.31       51.31       51.31       51.31       51.31       51.31       51.31    
        51.31       51.31       51.31       51.31       51.30       51.62       52.02       52.34       52.55       52.64    
        52.57       52.35       51.96       51.42       50.72       49.88       48.93       47.87       46.75       45.60    
        44.44       43.32       42.26       41.28       40.43       39.70       39.12       38.70       38.43       38.33    
        38.39       38.59       38.89       39.29       39.75       40.23       40.71       41.16       41.53       41.82    
        41.98       42.00       41.87       41.58       41.13       40.53       39.78       38.90       37.92       36.86    
        35.75       34.63       33.52       32.47       31.49       30.62       29.87       29.28       28.84       28.57    
  70    61.75       61.35       60.81       60.13       59.33       58.43       57.46       56.43       55.38       54.34    
        53.33       52.40       51.55       51.31       51.31       51.31       51.30       51.30       51.30       51.30    
        51.30       51.30       51.30       51.30       51.30       51.47       51.84       52.13       52.33       52.41    
        52.35       52.15       51.81       51.31       50.68       49.92       49.05       48.10       47.08       46.04    
        45.00       43.98       43.01       42.13       41.35       40.69       40.16       39.77       39.53       39.45    
        39.51       39.69       39.97       40.34       40.76       41.20       41.64       42.05       42.40       42.66    
        42.81       42.83       42.72       42.46       42.05       41.50       40.82       40.03       39.13       38.17    
        37.17       36.15       35.15       34.19       33.30       32.51       31.83       31.29       30.90       30.65    
  71    60.47       60.12       59.63       59.03       58.31       57.51       56.63       55.71       54.77       53.84    
        52.94       52.10       51.35       51.30       51.30       51.30       51.30       51.30       51.30       51.30    
        51.29       51.29       51.29       51.29       51.29       51.32       51.66       51.92       52.10       52.18    
        52.13       51.96       51.65       51.21       50.64       49.96       49.19       48.33       47.42       46.49    
        45.56       44.65       43.79       42.99       42.29       41.69       41.21       40.88       40.67       40.60    
        40.66       40.82       41.08       41.41       41.79       42.20       42.60       42.97       43.28       43.52    
        43.66       43.68       43.58       43.35       42.99       42.50       41.89       41.18       40.38       39.52    
        38.62       37.71       36.81       35.95       35.15       34.45       33.84       33.36       33.01       32.79    
  72    59.17       58.86       58.43       57.90       57.27       56.56       55.79       54.98       54.15       53.32    
        52.53       51.79       51.29       51.29       51.29       51.29       51.29       51.29       51.29       51.29    
        51.29       51.28       51.28       51.28       51.27       51.27       51.47       51.71       51.87       51.94    
        51.91       51.76       51.49       51.10       50.61       50.01       49.33       48.57       47.78       46.96    
        46.14       45.33       44.57       43.87       43.24       42.71       42.30       42.00       41.83       41.77    
        41.82       41.98       42.21       42.51       42.85       43.21       43.57       43.90       44.19       44.40    
        44.53       44.56       44.47       44.27       43.96       43.53       42.99       42.36       41.66       40.90    
        40.11       39.30       38.51       37.75       37.05       36.42       35.89       35.47       35.16       34.97    
  73    57.84       57.58       57.21       56.75       56.21       55.60       54.93       54.23       53.51       52.80    
        52.12       51.48       51.29       51.29       51.29       51.29       51.29       51.29       51.28       51.28    
        51.28       51.28       51.27       51.27       51.26       51.26       51.28       51.49       51.64       51.71    
        51.68       51.56       51.33       51.00       50.57       50.06       49.47       48.83       48.14       47.44    
        46.73       46.03       45.36       44.75       44.21       43.76       43.40       43.15       43.00       42.96    
        43.01       43.15       43.36       43.62       43.93       44.25       44.56       44.86       45.11       45.30    
        45.42       45.45       45.38       45.21       44.94       44.57       44.11       43.57       42.96       42.30    
        41.62       40.92       40.23       39.58       38.97       38.44       37.98       37.61       37.35       37.19    
  74    56.49       56.28       55.97       55.59       55.13       54.62       54.06       53.47       52.87       52.27    
        51.69       51.29       51.28       51.28       51.28       51.28       51.28       51.28       51.28       51.28    
        51.27       51.27       51.26       51.25       51.25       51.24       51.23       51.28       51.41       51.47    
        51.46       51.36       51.17       50.90       50.54       50.11       49.63       49.10       48.52       47.93    
        47.33       46.73       46.16       45.64       45.19       44.81       44.52       44.31       44.20       44.17    
        44.22       44.34       44.52       44.76       45.02       45.30       45.57       45.83       46.05       46.22    
        46.33       46.36       46.30       46.17       45.94       45.63       45.25       44.79       44.28       43.73    
        43.15       42.57       41.99       41.44       40.93       40.48       40.09       39.79       39.57       39.44    
  75    55.13       54.96       54.72       54.41       54.05       53.63       53.18       52.70       52.22       51.73    
        51.29       51.28       51.28       51.28       51.28       51.28       51.28       51.28       51.27       51.27    
        51.26       51.26       51.25       51.24       51.23       51.22       51.20       51.19       51.18       51.23    
        51.23       51.15       51.01       50.79       50.51       50.18       49.80       49.38       48.91       48.42    
        47.92       47.43       46.96       46.55       46.18       45.89       45.65       45.49       45.40       45.39    
        45.44       45.54       45.70       45.90       46.13       46.36       46.60       46.81       47.00       47.15    
        47.24       47.28       47.24       47.13       46.96       46.71       46.40       46.04       45.62       45.18    
        44.71       44.23       43.77       43.32       42.91       42.54       42.24       41.99       41.82       41.72    
  76    53.76       53.64       53.46       53.23       52.95       52.63       52.29       51.93       51.56       51.28    
        51.28       51.28       51.28       51.28       51.28       51.28       51.27       51.27       51.27       51.26    
        51.26       51.25       51.24       51.23       51.22       51.20       51.18       51.16       51.12       51.09    
        51.04       50.97       50.87       50.72       50.53       50.29       50.00       49.67       49.29       48.90    
        48.51       48.12       47.78       47.46       47.19       46.97       46.80       46.68       46.62       46.62    
        46.67       46.76       46.89       47.06       47.24       47.44       47.63       47.81       47.96       48.09    
        48.17       48.20       48.19       48.11       47.98       47.80       47.57       47.29       46.98       46.64    
        46.28       45.92       45.56       45.22       44.91       44.63       44.40       44.22       44.09       44.02    
  77    52.38       52.30       52.18       52.03       51.84       51.63       51.40       51.28       51.28       51.28    
        51.28       51.28       51.28       51.28       51.28       51.27       51.27       51.27       51.26       51.26    
        51.25       51.24       51.24       51.22       51.21       51.19       51.17       51.14       51.10       51.06    
        51.00       50.94       50.85       50.74       50.60       50.42       50.19       49.93       49.66       49.37    
        49.09       48.83       48.60       48.39       48.21       48.06       47.95       47.88       47.85       47.86    
        47.90       47.98       48.09       48.22       48.37       48.52       48.67       48.81       48.93       49.03    
        49.10       49.14       49.14       49.10       49.02       48.90       48.74       48.55       48.34       48.10    
        47.86       47.61       47.36       47.13       46.92       46.73       46.57       46.45       46.37       46.33    
  78    51.29       51.29       51.29       51.28       51.28       51.28       51.28       51.28       51.28       51.28    
        51.28       51.28       51.28       51.28       51.27       51.27       51.27       51.27       51.26       51.26    
        51.25       51.24       51.23       51.21       51.20       51.18       51.15       51.12       51.09       51.04    
        50.99       50.93       50.86       50.77       50.66       50.52       50.36       50.18       50.00       49.83    
        49.69       49.56       49.43       49.32       49.23       49.16       49.10       49.08       49.08       49.10    
        49.15       49.21       49.29       49.39       49.49       49.60       49.71       49.81       49.90       49.98    
        50.04       50.08       50.10       50.09       50.05       50.00       49.92       49.82       49.70       49.58    
        49.45       49.31       49.18       49.05       48.94       48.84       48.76       48.70       48.66       48.65    
  79    51.28       51.28       51.28       51.28       51.28       51.28       51.28       51.28       51.28       51.28    
        51.28       51.28       51.28       51.28       51.27       51.27       51.27       51.26       51.26       51.25    
        51.25       51.24       51.22       51.21       51.19       51.17       51.14       51.11       51.08       51.04    
        50.99       50.93       50.87       50.79       50.71       50.61       50.51       50.41       50.34       50.32    
        50.30       50.28       50.26       50.25       50.25       50.25       50.26       50.28       50.31       50.35    
        50.39       50.44       50.50       50.56       50.62       50.69       50.75       50.82       50.88       50.93    
        50.98       51.02       51.05       51.08       51.09       51.10       51.10       51.09       51.07       51.05    
        51.03       51.01       50.99       50.97       50.96       50.95       50.94       50.95       50.96       50.98    
  80    51.28       51.28       51.28       51.28       51.28       51.28       51.28       51.28       51.28       51.28    
        51.28       51.28       51.28       51.27       51.27       51.27       51.27       51.26       51.26       51.25    
        51.24       51.23       51.22       51.21       51.19       51.17       51.14       51.11       51.07       51.03    
        50.99       50.93       50.87       50.81       50.74       50.67       50.62       50.61       50.71       50.80    
        50.90       51.00       51.09       51.18       51.27       51.35       51.42       51.48       51.54       51.59    
        51.63       51.67       51.70       51.73       51.75       51.77       51.80       51.82       51.85       51.88    
        51.91       51.96       52.01       52.06       52.12       52.19       52.27       52.35       52.44       52.53    
        52.62       52.71       52.80       52.89       52.97       53.05       53.13       53.19       53.25       53.30    

 HEAD WILL BE SAVED ON UNIT   51 AT END OF TIME STEP    1, STRESS PERIOD    1
1
  VOLUMETRIC BUDGET FOR ENTIRE MODEL AT END OF TIME STEP    1, STRESS PERIOD   1
  ------------------------------------------------------------------------------

     CUMULATIVE VOLUMES      L**3       RATES FOR THIS TIME STEP      L**3/T
     ------------------                 ------------------------

           IN:                                      IN:
           ---                                      ---
             STORAGE =           0.0000               STORAGE =           0.0000
       CONSTANT HEAD =           0.0000         CONSTANT HEAD =           0.0000
            RECHARGE =         108.3503              RECHARGE =           0.2969

            TOTAL IN =         108.3503              TOTAL IN =           0.2969

          OUT:                                     OUT:
          ----                                     ----
             STORAGE =           0.0000               STORAGE =           0.0000
       CONSTANT HEAD =         108.3717         CONSTANT HEAD =           0.2969
            RECHARGE =           0.0000              RECHARGE =           0.0000

           TOTAL OUT =         108.3717             TOTAL OUT =           0.2969

            IN - OUT =      -2.1382E-02              IN - OUT =      -5.8580E-05

 PERCENT DISCREPANCY =          -0.02     PERCENT DISCREPANCY =          -0.02






         TIME SUMMARY AT END OF TIME STEP    1 IN STRESS PERIOD    1
                    SECONDS     MINUTES      HOURS       DAYS        YEARS
                    -----------------------------------------------------------
   TIME STEP LENGTH 3.15360E+07 5.25600E+05  8760.0      365.00     0.99932    
 STRESS PERIOD TIME 3.15360E+07 5.25600E+05  8760.0      365.00     0.99932    
         TOTAL TIME 3.15360E+07 5.25600E+05  8760.0      365.00     0.99932    
1

 Run end date and time (yyyy/mm/dd hh:mm:ss): 2017/10/02 16:39:11
 Elapsed run time:  2.373 Seconds

