                                  MODFLOW-USG      
      U.S. GEOLOGICAL SURVEY MODULAR FINITE-DIFFERENCE GROUNDWATER FLOW MODEL
                            VERSION 1.4.00 01/13/2016

 LIST FILE: ex3A.lst
                         UNIT    7

 OPENING ex3A.bas
 FILE TYPE:BAS6   UNIT    1   STATUS:OLD    
 FORMAT:FORMATTED              ACCESS:SEQUENTIAL          

 OPENING ex3A.WEL
 FILE TYPE:WEL   UNIT   14   STATUS:OLD    
 FORMAT:FORMATTED              ACCESS:SEQUENTIAL          

 OPENING ex3A.dis
 FILE TYPE:DIS   UNIT   12   STATUS:OLD    
 FORMAT:FORMATTED              ACCESS:SEQUENTIAL          

 OPENING ex3A.bcf
 FILE TYPE:BCF6   UNIT   11   STATUS:OLD    
 FORMAT:FORMATTED              ACCESS:SEQUENTIAL          

 OPENING ex3A.cln
 FILE TYPE:CLN   UNIT   13   STATUS:OLD    
 FORMAT:FORMATTED              ACCESS:SEQUENTIAL          

 OPENING ex3A.oc
 FILE TYPE:OC   UNIT   22   STATUS:OLD    
 FORMAT:FORMATTED              ACCESS:SEQUENTIAL          

 OPENING ex3A.sms
 FILE TYPE:SMS   UNIT   19   STATUS:OLD    
 FORMAT:FORMATTED              ACCESS:SEQUENTIAL          

 OPENING ex3A.cbb
 FILE TYPE:DATA(BINARY)   UNIT   50   STATUS:UNKNOWN
 FORMAT:BINARY                 ACCESS:SEQUENTIAL          

 OPENING ex3A.hds
 FILE TYPE:DATA(BINARY)   UNIT   30   STATUS:UNKNOWN
 FORMAT:BINARY                 ACCESS:SEQUENTIAL          

 OPENING ex3A.ddn
 FILE TYPE:DATA(BINARY)   UNIT   31   STATUS:UNKNOWN
 FORMAT:BINARY                 ACCESS:SEQUENTIAL          

 OPENING ex3A.cln.cbb
 FILE TYPE:DATA(BINARY)   UNIT   35   STATUS:UNKNOWN
 FORMAT:BINARY                 ACCESS:SEQUENTIAL          

 OPENING ex3A.cln.hds
 FILE TYPE:DATA(BINARY)   UNIT   36   STATUS:UNKNOWN
 FORMAT:BINARY                 ACCESS:SEQUENTIAL          

 OPENING ex3A.cbw
 FILE TYPE:DATA(BINARY)   UNIT   54   STATUS:UNKNOWN
 FORMAT:BINARY                 ACCESS:SEQUENTIAL          

 BAS -- BASIC PACKAGE-USG      1.4.00 01/13/2016                        INPUT READ FROM UNIT    1
 
 # MODFLOW2005 Basic Package                                                     
 #                                                                               
 #

 DIS -- UNSTRUCTURED GRID DISCRETIZATION PACKAGE, VERSION 1 : 5/17/2010 - INPUT READ FROM UNIT   12
 # MODFLOW2000 Discretization File
    2 LAYERS       100 ROWS       100 COLUMNS
    1 STRESS PERIOD(S) IN SIMULATION
 MODEL TIME UNIT IS DAYS
 MODEL LENGTH UNIT IS UNDEFINED
  Confining bed flag for each layer:
   1   0

 CLN -- CONNECTED LINE NETWORK DISCRETIZATION PROCESS, VERSION 1, 3/3/2012 INPUT READ FROM UNIT   13
 FLAG (0) OR MAXIMUM NUMBER OF LINEAR NODES (NCLN) =      1
 FLAG (-VE) OR NUMBER OF LINEAR NODES (+VE) (ICLNNDS) =     -1
 NUMBER OF LINEAR NODE TO MATRIX GRID CONNECTIONS (NCLNGWC) =      2

 CELL-BY-CELL FLOWS WILL BE SAVED ON UNIT    35(FLAG ICLNCB IS GREATER THAN ZERO)
 CLN HEAD OUTPUT WILL BE SAVED ON UNIT   36(FLAG ICLNHD IS GREATER THAN ZERO)
 CLN DDN OUTPUT WILL NOT BE SAVED OR PRINTED (FLAG ICLNDD IS EQUAL TO ZERO)
 CLN IBOUND OUTPUT WILL NOT BE SAVED OR PRINTED (FLAG ICLNIB IS EQUAL TO ZERO)

    NODES PER CLN SEGMENT =         2

                     CONNECTED LINE NETWORK INFORMATION
                    ----------------------------------------
     CLN-NODE NO. CLNTYP ORIENTATION  CLN LENGTH    BOT ELEVATION         FANGLE         IFLIN           ICCWADI
     -----------  ------ ----------- -----------    -------------    -----------        ------    -------
              1      1          0    0.100000E+02    0.000000E+00    0.157000E+01          0          0
              2      1          0    0.100000E+02   -0.200000E+02    0.157000E+01          0          0

                     CLN TO 3-D GRID CONNECTION INFORMATION
                    ----------------------------------------
     F-NODE NO.      LAYER        ROW     COLUMN  EQTN. TYPE           FSKIN           FLENG          FANISO   ICGWADI
     ----------      -----        ---     ------  -----------   ------------  --------------    ------------   -------
              1          1         50         50           0    0.000000E+00    0.100000E+02    0.100000E+01         0
              2          2         50         50           0    0.000000E+00    0.100000E+02    0.100000E+01         0

                     CONDUIT NODE INFORMATION
                    ----------------------------------------
     CONDUIT NODE        RADIUS   CONDUIT SAT K
     ------------        ------   -------------
              1    0.500000E+00    0.323000E+11

 DIS -- UNSTRUCTURED GRID DISCRETIZATION PACKAGE, VERSION 1 : 5/17/2010 - INPUT READ FROM UNIT   12

                     DELR =   470.000    

                     DELC =   470.000    

 TOP ELEVATION OF LAYER 1 =   10.0000    

   MODEL LAYER BOTTOM EL. =   0.00000     FOR LAYER   1

 BOT. EL. OF QUASI-3D BED =  -10.0000     FOR LAYER   1

   MODEL LAYER BOTTOM EL. =  -20.0000     FOR LAYER   2


 STRESS PERIOD     LENGTH       TIME STEPS     MULTIPLIER FOR DELT    SS FLAG
 ----------------------------------------------------------------------------
        1         160.0000        160                    1.000         TR

 TRANSIENT SIMULATION




           BOUNDARY ARRAY =              1 FOR LAYER   1

           BOUNDARY ARRAY =              1 FOR LAYER   2

 AQUIFER HEAD WILL BE SET TO   999.00     AT ALL NO-FLOW NODES (IBOUND=0).

             INITIAL HEAD =   10.0000     FOR LAYER   1

             INITIAL HEAD =   30.0000     FOR LAYER   2

 OUTPUT CONTROL IS SPECIFIED ONLY AT TIME STEPS FOR WHICH OUTPUT IS DESIRED
 COMPACT CELL-BY-CELL BUDGET FILES WILL BE WRITTEN
 HEAD PRINT FORMAT CODE IS   0    DRAWDOWN PRINT FORMAT CODE IS   0
 HEADS WILL BE SAVED ON UNIT   30    DRAWDOWNS WILL BE SAVED ON UNIT   31

 BCF -- BLOCK-CENTERED FLOW PACKAGE, VERSION 7, 5/2/2005
         INPUT READ FROM UNIT 11
 TRANSIENT SIMULATION
 CELL-BY-CELL FLOWS WILL BE SAVED ON UNIT 50
 HEAD AT CELLS THAT CONVERT TO DRY=  -1000.0    
 WETTING CAPABILITY IS NOT ACTIVE
 IKVFLAG=0, NODAL INPUT OF CV
      LAYER  LAYER-TYPE CODE     INTERBLOCK T
      --------------------------------------------
         1            4          0 -- HARMONIC    
         2            4          0 -- HARMONIC    

 COLUMN TO ROW ANISOTROPY =   1.00000    

     PRIMARY STORAGE COEF =  1.000000E-04 FOR LAYER   1

    HYD. COND. ALONG ROWS =   100.000     FOR LAYER   1

 VERT HYD COND /THICKNESS =   0.00000     FOR LAYER   1

   SECONDARY STORAGE COEF =  1.000000E-02 FOR LAYER   1

     PRIMARY STORAGE COEF =  1.000000E-04 FOR LAYER   2

    HYD. COND. ALONG ROWS =   400.000     FOR LAYER   2

   SECONDARY STORAGE COEF =  1.000000E-02 FOR LAYER   2

 CLN -- CONDUIT DOMAIN FLOW PACKAGE, VERSION 1, 5/17/2010 INPUT READ FROM UNIT   13

  CONDUIT BOUNDARY ARRAY  =         1



              CONDUIT INITIAL HEAD 
 READING ON UNIT   13 WITH FORMAT: (10e12.4)           

 WEL -- WELL PACKAGE, VERSION 7, 5/2/2005 INPUT READ FROM UNIT   14
 No named parameters
 MAXIMUM OF      1 ACTIVE WELLS AT ONE TIME
 CELL-BY-CELL FLOWS WILL BE SAVED ON UNIT   54
 MAXIMUM NUMBER OF ACTIVE WELLS (MXACTW) =      1
 C-B-C FLUX FLAG OR UNIT NUMBER (IWELCB) = 54
 WELL FLUX WILL BE REDUCED WHEN SATURATED THICKNESS IS LESS THAN 1 PERCENT OF CELL THICKNESS


     0 Well parameters

 SMS -- SPARSE MATRIX SOLVER PACKAGE, VERSION 7, 5/2/2005
         INPUT READ FROM UNIT 19
 No named parameters
 ALL SOLVER INPUT DATA WILL BE READ 
FROM THE SOLVER INPUT FILE. 
 OUTER ITERATION CONVERGENCE CRITERION (HCLOSE) =    0.100000E-02
 INNER ITERATION CONVERGENCE CRITERION (HICLOSE) =    0.100000E-04
 MAXIMUM NUMBER OF OUTER ITERATIONS (MXITER)     =       220
 MAXIMUM NUMBER OF INNER ITERATIONS (ITER1)      =       600
 SOLVER PRINTOUT INDEX             (IPRSMS)      =         1
 NONLINEAR ITERATION METHOD    (NONLINMETH)      =         1
 LINEAR SOLUTION METHOD           (LINMETH)      =         1
 D-B-D WEIGHT REDUCTION FACTOR      (THETA)      =    0.900000E+00
 D-B-D WEIGHT INCREASE INCREMENT    (KAPPA)      =    0.700000E-01
 D-B-D PREVIOUS HISTORY FACTOR      (GAMMA)      =    0.100000E+00
 MOMENTUM TERM                  (AMOMENTUM)      =    0.000000E+00
 MAXIMUM NUMBER OF BACKTRACKS    (NUMTRACK)      =       200
 BACKTRACKING TOLERANCE FACTOR       (BTOL)      =    0.110000E+26
 BACKTRACKING REDUCTION FACTOR     (BREDUC)      =    0.200000E+00
 BACKTRACKING REIDUAL LIMIT       (RES_LIM)      =    0.100000E+01
 ***Newton Linearization will be used***
 
 ***XMD linear solver will be used***
 XMD -- LINEAR SOLUTION BY XMD PACKAGE VERSION 1.30
     BY MOTOMU IBARAKI, OHIO STATE UNIVERSITY, COLOMBUS, OH
                 INPUT READ FROM UNIT 19
 ACCELERATION METHOD                    (IACL) =         2
 EQUATION ORDERING FLAG               (NORDER) =         0
 LEVEL OF FILL                         (LEVEL) =         3
 MAXIMUM NUMBER OF ORTHOGONALIZATIONS  (NORTH) =         8
 INDEX FOR USING REDUCED SYSTEM      (IREDSYS) =         0
 RESID. REDUCTION CONVERGE CRITERION  (RRCTOL) =  0.000000E+00
 INDEX FOR USING DROP TOLERANCE     (IDROPTOL) =         0
 DROP TOLERANCE VALUE                 ((EPSRN) =  0.100000E-02
 
1
                            STRESS PERIOD NO.    1, LENGTH =   160.0000    
                            -----------------------------------------------

                              NUMBER OF TIME STEPS =   160

                               MULTIPLIER FOR DELT =     1.000

                            INITIAL TIME STEP SIZE =   1.000000    

 WEL -- WELL PACKAGE, VERSION 7, 5/2/2005 INPUT READ FROM UNIT   14

 WELL NO.  CLN-NODE       STRESS FACTOR         
 -----------------------------------------------
      1           2     -0.6284E+05

      1 WELL 
 
 SOLVING FOR HEAD 

 Outer-Iteration  Inner-Iteration  Backtracking  Number of        Incoming       Outgoing  Maximum HeadChange      Maximum Head Change
     Number           Count           Flag       Backtracks       Residual       Residual           Value              Location
        1                             0             0          0.800251E+17     0.800251E+17
        1               17                                                                        -10.4534               2    50    50  lay row col
        1               17                                                                        -23.0683                     2           CLN-node number
        2                             0             0          0.859850E+08     0.859850E+08
        2               12                                                                        0.774116               1    50    50  lay row col
        2               12                                                                        0.193182                     1           CLN-node number
        3                             0             0           815160.          815160.    
        3                9                                                                        0.647094E-01           1    50    50  lay row col
        3                9                                                                        0.287563E-01                 1           CLN-node number
        4                             0             0           723.824          723.824    
        4                5                                                                        0.187547E-02           1    50    50  lay row col
        4                5                                                                        0.910918E-03                 1           CLN-node number
        5                             0             0          0.279108E-01     0.279108E-01
        5                3                                                                       -0.726127E-04           1    77    55  lay row col
        5                3                                                                        0.230420E-05                 2           CLN-node number


     5 CALLS TO SPARSE MATRIX SOLVER PACKAGE  IN FLOW TIME STEP   1 STRESS PERIOD   1

 TOTAL OF       5OUTER ITERATIONS
  MAXIMUM CHANGE FOR EACH ITERATION:
  MAX. CHANGE   LAYER,  ROW,  COL MAX. CHANGE   LAYER,  ROW,  COL MAX. CHANGE   LAYER,  ROW,  COL MAX. CHANGE   LAYER,  ROW,  COL MAX. CHANGE   LAYER,  ROW,  COL
 ------------------------------------------------------------------------------------------------------------------------------------------
   -10.45     (    2,   50,   50)  0.7741     (    1,   50,   50)  0.6471E-01 (    1,   50,   50)  0.1875E-02 (    1,   50,   50) -0.7261E-04 (    1,   77,   55)

  MAXIMUM CHANGE FOR CLN NODE AT EACH ITERATION:
   MAX. CHANGE    CLN-CELL  MAX. CHANGE    CLN-CELL  MAX. CHANGE    CLN-CELL  MAX. CHANGE    CLN-CELL  MAX. CHANGE    CLN-CELL
 ------------------------------------------------------------------------------------------------------------------------------------
   -23.068    ,          2  0.19318    ,          1  0.28756E-01,          1  0.91092E-03,          1  0.23042E-05,          2

 NO OUTPUT CONTROL FOR STRESS PERIOD        1   TIME STEP        1
 
 SOLVING FOR HEAD 

 Outer-Iteration  Inner-Iteration  Backtracking  Number of        Incoming       Outgoing  Maximum HeadChange      Maximum Head Change
     Number           Count           Flag       Backtracks       Residual       Residual           Value              Location
        1                             0             0          0.303770E+07     0.303770E+07
        1               14                                                                        -1.13335               2    49    49  lay row col
        1               14                                                                       -0.978918                     2           CLN-node number
        2                             0             0           30492.0          30492.0    
        2                7                                                                       -0.296377E-02           2    50    50  lay row col
        2                7                                                                       -0.654499E-02                 2           CLN-node number
        3                             0             0           1.94436          1.94436    
        3                3                                                                        0.144777E-03           1    50    50  lay row col
        3                3                                                                       -0.852256E-06                 2           CLN-node number
     3 CALLS TO SPARSE MATRIX SOLVER PACKAGE  IN FLOW TIME STEP   2 STRESS PERIOD   1

 TOTAL OF       3OUTER ITERATIONS
  MAXIMUM CHANGE FOR EACH ITERATION:
  MAX. CHANGE   LAYER,  ROW,  COL MAX. CHANGE   LAYER,  ROW,  COL MAX. CHANGE   LAYER,  ROW,  COL MAX. CHANGE   LAYER,  ROW,  COL MAX. CHANGE   LAYER,  ROW,  COL
 ------------------------------------------------------------------------------------------------------------------------------------------
   -1.133     (    2,   49,   49) -0.2964E-02 (    2,   50,   50)  0.1448E-03 (    1,   50,   50)

  MAXIMUM CHANGE FOR CLN NODE AT EACH ITERATION:
   MAX. CHANGE    CLN-CELL  MAX. CHANGE    CLN-CELL  MAX. CHANGE    CLN-CELL  MAX. CHANGE    CLN-CELL  MAX. CHANGE    CLN-CELL
 ------------------------------------------------------------------------------------------------------------------------------------
  -0.97892    ,          2 -0.65450E-02,          2 -0.85226E-06,          2

 NO OUTPUT CONTROL FOR STRESS PERIOD        1   TIME STEP        2
 
 SOLVING FOR HEAD 

 Outer-Iteration  Inner-Iteration  Backtracking  Number of        Incoming       Outgoing  Maximum HeadChange      Maximum Head Change
     Number           Count           Flag       Backtracks       Residual       Residual           Value              Location
        1                             0             0          0.151983E+07     0.151983E+07
        1               11                                                                       -0.589820               2    48    48  lay row col
        1               11                                                                       -0.522574                     2           CLN-node number
        2                             0             0           4173.09          4173.09    
        2                6                                                                       -0.966647E-03           2    50    50  lay row col
        2                6                                                                       -0.213770E-02                 2           CLN-node number
        3                             0             0           9.84446          9.84446    
        3                3                                                                        0.947540E-04           1    39    62  lay row col
        3                3                                                                       -0.102940E-05                 2           CLN-node number
     3 CALLS TO SPARSE MATRIX SOLVER PACKAGE  IN FLOW TIME STEP   3 STRESS PERIOD   1

 TOTAL OF       3OUTER ITERATIONS
  MAXIMUM CHANGE FOR EACH ITERATION:
  MAX. CHANGE   LAYER,  ROW,  COL MAX. CHANGE   LAYER,  ROW,  COL MAX. CHANGE   LAYER,  ROW,  COL MAX. CHANGE   LAYER,  ROW,  COL MAX. CHANGE   LAYER,  ROW,  COL
 ------------------------------------------------------------------------------------------------------------------------------------------
  -0.5898     (    2,   48,   48) -0.9666E-03 (    2,   50,   50)  0.9475E-04 (    1,   39,   62)

  MAXIMUM CHANGE FOR CLN NODE AT EACH ITERATION:
   MAX. CHANGE    CLN-CELL  MAX. CHANGE    CLN-CELL  MAX. CHANGE    CLN-CELL  MAX. CHANGE    CLN-CELL  MAX. CHANGE    CLN-CELL
 ------------------------------------------------------------------------------------------------------------------------------------
  -0.52257    ,          2 -0.21377E-02,          2 -0.10294E-05,          2

 NO OUTPUT CONTROL FOR STRESS PERIOD        1   TIME STEP        3
 
 SOLVING FOR HEAD 

 Outer-Iteration  Inner-Iteration  Backtracking  Number of        Incoming       Outgoing  Maximum HeadChange      Maximum Head Change
     Number           Count           Flag       Backtracks       Residual       Residual           Value              Location
        1                             0             0          0.102707E+07     0.102707E+07
        1               13                                                                       -0.419220               2    47    48  lay row col
        1               13                                                                       -0.373394                     2           CLN-node number
        2                             0             0           10482.4          10482.4    
        2                5                                                                        0.150423E-02           1    59    60  lay row col
        2                5                                                                       -0.111316E-02                 2           CLN-node number
        3                             0             0           93.4677          93.4677    
        3                3                                                                        0.150416E-03           1    59    60  lay row col
        3                3                                                                       -0.158547E-05                 2           CLN-node number
     3 CALLS TO SPARSE MATRIX SOLVER PACKAGE  IN FLOW TIME STEP   4 STRESS PERIOD   1

 TOTAL OF       3OUTER ITERATIONS
  MAXIMUM CHANGE FOR EACH ITERATION:
  MAX. CHANGE   LAYER,  ROW,  COL MAX. CHANGE   LAYER,  ROW,  COL MAX. CHANGE   LAYER,  ROW,  COL MAX. CHANGE   LAYER,  ROW,  COL MAX. CHANGE   LAYER,  ROW,  COL
 ------------------------------------------------------------------------------------------------------------------------------------------
  -0.4192     (    2,   47,   48)  0.1504E-02 (    1,   59,   60)  0.1504E-03 (    1,   59,   60)

  MAXIMUM CHANGE FOR CLN NODE AT EACH ITERATION:
   MAX. CHANGE    CLN-CELL  MAX. CHANGE    CLN-CELL  MAX. CHANGE    CLN-CELL  MAX. CHANGE    CLN-CELL  MAX. CHANGE    CLN-CELL
 ------------------------------------------------------------------------------------------------------------------------------------
  -0.37339    ,          2 -0.11132E-02,          2 -0.15855E-05,          2

 NO OUTPUT CONTROL FOR STRESS PERIOD        1   TIME STEP        4
 
 SOLVING FOR HEAD 

 Outer-Iteration  Inner-Iteration  Backtracking  Number of        Incoming       Outgoing  Maximum HeadChange      Maximum Head Change
     Number           Count           Flag       Backtracks       Residual       Residual           Value              Location
        1                             0             0           825469.          825469.    
        1               10                                                                       -0.344011               2    47    46  lay row col
        1               10                                                                       -0.305234                     2           CLN-node number
        2                             0             0           30224.9          30224.9    
        2                4                                                                        0.195586E-02           1    66    67  lay row col
        2                4                                                                       -0.735531E-03                 2           CLN-node number
        3                             0             0           295.212          295.212    
        3                3                                                                        0.195574E-03           1    66    67  lay row col
        3                3                                                                       -0.319998E-05                 2           CLN-node number
     3 CALLS TO SPARSE MATRIX SOLVER PACKAGE  IN FLOW TIME STEP   5 STRESS PERIOD   1

 TOTAL OF       3OUTER ITERATIONS
  MAXIMUM CHANGE FOR EACH ITERATION:
  MAX. CHANGE   LAYER,  ROW,  COL MAX. CHANGE   LAYER,  ROW,  COL MAX. CHANGE   LAYER,  ROW,  COL MAX. CHANGE   LAYER,  ROW,  COL MAX. CHANGE   LAYER,  ROW,  COL
 ------------------------------------------------------------------------------------------------------------------------------------------
  -0.3440     (    2,   47,   46)  0.1956E-02 (    1,   66,   67)  0.1956E-03 (    1,   66,   67)

  MAXIMUM CHANGE FOR CLN NODE AT EACH ITERATION:
   MAX. CHANGE    CLN-CELL  MAX. CHANGE    CLN-CELL  MAX. CHANGE    CLN-CELL  MAX. CHANGE    CLN-CELL  MAX. CHANGE    CLN-CELL
 ------------------------------------------------------------------------------------------------------------------------------------
  -0.30523    ,          2 -0.73553E-03,          2 -0.32000E-05,          2

 NO OUTPUT CONTROL FOR STRESS PERIOD        1   TIME STEP        5
 
 SOLVING FOR HEAD 

 Outer-Iteration  Inner-Iteration  Backtracking  Number of        Incoming       Outgoing  Maximum HeadChange      Maximum Head Change
     Number           Count           Flag       Backtracks       Residual       Residual           Value              Location
        1                             0             0           726304.          726304.    
        1               11                                                                       -0.306552               2    45    45  lay row col
        1               11                                                                       -0.270107                     2           CLN-node number
        2                             0             0           67884.3          67884.3    
        2                4                                                                        0.234112E-02           1    50    15  lay row col
        2                4                                                                       -0.565566E-03                 2           CLN-node number
        3                             0             0           673.405          673.405    
        3                3                                                                        0.234098E-03           1    50    15  lay row col
        3                3                                                                       -0.290158E-05                 2           CLN-node number
     3 CALLS TO SPARSE MATRIX SOLVER PACKAGE  IN FLOW TIME STEP   6 STRESS PERIOD   1

 TOTAL OF       3OUTER ITERATIONS
  MAXIMUM CHANGE FOR EACH ITERATION:
  MAX. CHANGE   LAYER,  ROW,  COL MAX. CHANGE   LAYER,  ROW,  COL MAX. CHANGE   LAYER,  ROW,  COL MAX. CHANGE   LAYER,  ROW,  COL MAX. CHANGE   LAYER,  ROW,  COL
 ------------------------------------------------------------------------------------------------------------------------------------------
  -0.3066     (    2,   45,   45)  0.2341E-02 (    1,   50,   15)  0.2341E-03 (    1,   50,   15)

  MAXIMUM CHANGE FOR CLN NODE AT EACH ITERATION:
   MAX. CHANGE    CLN-CELL  MAX. CHANGE    CLN-CELL  MAX. CHANGE    CLN-CELL  MAX. CHANGE    CLN-CELL  MAX. CHANGE    CLN-CELL
 ------------------------------------------------------------------------------------------------------------------------------------
  -0.27011    ,          2 -0.56557E-03,          2 -0.29016E-05,          2

 NO OUTPUT CONTROL FOR STRESS PERIOD        1   TIME STEP        6
 
 SOLVING FOR HEAD 

 Outer-Iteration  Inner-Iteration  Backtracking  Number of        Incoming       Outgoing  Maximum HeadChange      Maximum Head Change
     Number           Count           Flag       Backtracks       Residual       Residual           Value              Location
        1                             0             0           669696.          669696.    
        1               12                                                                       -0.286908               2    44    43  lay row col
        1               12                                                                       -0.250883                     2           CLN-node number
        2                             0             0           132601.          132601.    
        2                4                                                                        0.373694E-02           1   100    38  lay row col
        2                4                                                                       -0.478971E-03                 2           CLN-node number
        3                             0             0           1320.83          1320.83    
        3                2                                                                        0.373671E-03           1   100    38  lay row col
        3                2                                                                       -0.321099E-05                 2           CLN-node number
     3 CALLS TO SPARSE MATRIX SOLVER PACKAGE  IN FLOW TIME STEP   7 STRESS PERIOD   1

 TOTAL OF       3OUTER ITERATIONS
  MAXIMUM CHANGE FOR EACH ITERATION:
  MAX. CHANGE   LAYER,  ROW,  COL MAX. CHANGE   LAYER,  ROW,  COL MAX. CHANGE   LAYER,  ROW,  COL MAX. CHANGE   LAYER,  ROW,  COL MAX. CHANGE   LAYER,  ROW,  COL
 ------------------------------------------------------------------------------------------------------------------------------------------
  -0.2869     (    2,   44,   43)  0.3737E-02 (    1,  100,   38)  0.3737E-03 (    1,  100,   38)

  MAXIMUM CHANGE FOR CLN NODE AT EACH ITERATION:
   MAX. CHANGE    CLN-CELL  MAX. CHANGE    CLN-CELL  MAX. CHANGE    CLN-CELL  MAX. CHANGE    CLN-CELL  MAX. CHANGE    CLN-CELL
 ------------------------------------------------------------------------------------------------------------------------------------
  -0.25088    ,          2 -0.47897E-03,          2 -0.32110E-05,          2

 NO OUTPUT CONTROL FOR STRESS PERIOD        1   TIME STEP        7
 
 SOLVING FOR HEAD 

 Outer-Iteration  Inner-Iteration  Backtracking  Number of        Incoming       Outgoing  Maximum HeadChange      Maximum Head Change
     Number           Count           Flag       Backtracks       Residual       Residual           Value              Location
        1                             0             0           633889.          633889.    
        1               12                                                                       -0.276438               2    41    41  lay row col
        1               12                                                                       -0.239982                     2           CLN-node number
        2                             0             0           33921.2          33921.2    
        2                4                                                                        0.487154E-02           1   100   100  lay row col
        2                4                                                                       -0.430256E-03                 2           CLN-node number
        3                             0             0           333.728          333.728    
        3                2                                                                        0.487115E-03           1   100   100  lay row col
        3                2                                                                       -0.283967E-05                 2           CLN-node number
     3 CALLS TO SPARSE MATRIX SOLVER PACKAGE  IN FLOW TIME STEP   8 STRESS PERIOD   1

 TOTAL OF       3OUTER ITERATIONS
  MAXIMUM CHANGE FOR EACH ITERATION:
  MAX. CHANGE   LAYER,  ROW,  COL MAX. CHANGE   LAYER,  ROW,  COL MAX. CHANGE   LAYER,  ROW,  COL MAX. CHANGE   LAYER,  ROW,  COL MAX. CHANGE   LAYER,  ROW,  COL
 ------------------------------------------------------------------------------------------------------------------------------------------
  -0.2764     (    2,   41,   41)  0.4872E-02 (    1,  100,  100)  0.4871E-03 (    1,  100,  100)

  MAXIMUM CHANGE FOR CLN NODE AT EACH ITERATION:
   MAX. CHANGE    CLN-CELL  MAX. CHANGE    CLN-CELL  MAX. CHANGE    CLN-CELL  MAX. CHANGE    CLN-CELL  MAX. CHANGE    CLN-CELL
 ------------------------------------------------------------------------------------------------------------------------------------
  -0.23998    ,          2 -0.43026E-03,          2 -0.28397E-05,          2

 NO OUTPUT CONTROL FOR STRESS PERIOD        1   TIME STEP        8
 
 SOLVING FOR HEAD 

 Outer-Iteration  Inner-Iteration  Backtracking  Number of        Incoming       Outgoing  Maximum HeadChange      Maximum Head Change
     Number           Count           Flag       Backtracks       Residual       Residual           Value              Location
        1                             0             0           607799.          607799.    
        1               13                                                                       -0.270897               2    38    37  lay row col
        1               13                                                                       -0.233657                     2           CLN-node number
        2                             0             0           633.223          633.223    
        2                4                                                                        0.246367E-03           1   100   100  lay row col
        2                4                                                                       -0.401178E-03                 2           CLN-node number
     2 CALLS TO SPARSE MATRIX SOLVER PACKAGE  IN FLOW TIME STEP   9 STRESS PERIOD   1

 TOTAL OF       2OUTER ITERATIONS
  MAXIMUM CHANGE FOR EACH ITERATION:
  MAX. CHANGE   LAYER,  ROW,  COL MAX. CHANGE   LAYER,  ROW,  COL MAX. CHANGE   LAYER,  ROW,  COL MAX. CHANGE   LAYER,  ROW,  COL MAX. CHANGE   LAYER,  ROW,  COL
 ------------------------------------------------------------------------------------------------------------------------------------------
  -0.2709     (    2,   38,   37)  0.2464E-03 (    1,  100,  100)

  MAXIMUM CHANGE FOR CLN NODE AT EACH ITERATION:
   MAX. CHANGE    CLN-CELL  MAX. CHANGE    CLN-CELL  MAX. CHANGE    CLN-CELL  MAX. CHANGE    CLN-CELL  MAX. CHANGE    CLN-CELL
 ------------------------------------------------------------------------------------------------------------------------------------
  -0.23366    ,          2 -0.40118E-03,          2

 NO OUTPUT CONTROL FOR STRESS PERIOD        1   TIME STEP        9
 
 SOLVING FOR HEAD 

 Outer-Iteration  Inner-Iteration  Backtracking  Number of        Incoming       Outgoing  Maximum HeadChange      Maximum Head Change
     Number           Count           Flag       Backtracks       Residual       Residual           Value              Location
        1                             0             0           589351.          589351.    
        1               12                                                                       -0.268068               2    33    33  lay row col
        1               12                                                                       -0.229939                     2           CLN-node number
        2                             0             0           747.353          747.353    
        2                4                                                                       -0.171905E-03           2    50    50  lay row col
        2                4                                                                       -0.382905E-03                 2           CLN-node number
     2 CALLS TO SPARSE MATRIX SOLVER PACKAGE  IN FLOW TIME STEP  10 STRESS PERIOD   1

 TOTAL OF       2OUTER ITERATIONS
  MAXIMUM CHANGE FOR EACH ITERATION:
  MAX. CHANGE   LAYER,  ROW,  COL MAX. CHANGE   LAYER,  ROW,  COL MAX. CHANGE   LAYER,  ROW,  COL MAX. CHANGE   LAYER,  ROW,  COL MAX. CHANGE   LAYER,  ROW,  COL
 ------------------------------------------------------------------------------------------------------------------------------------------
  -0.2681     (    2,   33,   33) -0.1719E-03 (    2,   50,   50)

  MAXIMUM CHANGE FOR CLN NODE AT EACH ITERATION:
   MAX. CHANGE    CLN-CELL  MAX. CHANGE    CLN-CELL  MAX. CHANGE    CLN-CELL  MAX. CHANGE    CLN-CELL  MAX. CHANGE    CLN-CELL
 ------------------------------------------------------------------------------------------------------------------------------------
  -0.22994    ,          2 -0.38291E-03,          2

 NO OUTPUT CONTROL FOR STRESS PERIOD        1   TIME STEP       10
 
 SOLVING FOR HEAD 

 Outer-Iteration  Inner-Iteration  Backtracking  Number of        Incoming       Outgoing  Maximum HeadChange      Maximum Head Change
     Number           Count           Flag       Backtracks       Residual       Residual           Value              Location
        1                             0             0           575506.          575506.    
        1               12                                                                       -0.266747               2    36    17  lay row col
        1               12                                                                       -0.227719                     2           CLN-node number
        2                             0             0           922.671          922.671    
        2                4                                                                       -0.166522E-03           2    50    50  lay row col
        2                4                                                                       -0.370848E-03                 2           CLN-node number
     2 CALLS TO SPARSE MATRIX SOLVER PACKAGE  IN FLOW TIME STEP  11 STRESS PERIOD   1

 TOTAL OF       2OUTER ITERATIONS
  MAXIMUM CHANGE FOR EACH ITERATION:
  MAX. CHANGE   LAYER,  ROW,  COL MAX. CHANGE   LAYER,  ROW,  COL MAX. CHANGE   LAYER,  ROW,  COL MAX. CHANGE   LAYER,  ROW,  COL MAX. CHANGE   LAYER,  ROW,  COL
 ------------------------------------------------------------------------------------------------------------------------------------------
  -0.2667     (    2,   36,   17) -0.1665E-03 (    2,   50,   50)

  MAXIMUM CHANGE FOR CLN NODE AT EACH ITERATION:
   MAX. CHANGE    CLN-CELL  MAX. CHANGE    CLN-CELL  MAX. CHANGE    CLN-CELL  MAX. CHANGE    CLN-CELL  MAX. CHANGE    CLN-CELL
 ------------------------------------------------------------------------------------------------------------------------------------
  -0.22772    ,          2 -0.37085E-03,          2

 NO OUTPUT CONTROL FOR STRESS PERIOD        1   TIME STEP       11
 
 SOLVING FOR HEAD 

 Outer-Iteration  Inner-Iteration  Backtracking  Number of        Incoming       Outgoing  Maximum HeadChange      Maximum Head Change
     Number           Count           Flag       Backtracks       Residual       Residual           Value              Location
        1                             0             0           564731.          564731.    
        1               12                                                                       -0.266215               2    29     1  lay row col
        1               12                                                                       -0.226398                     2           CLN-node number
        2                             0             0           1168.29          1168.29    
        2                4                                                                       -0.162861E-03           2    50    50  lay row col
        2                4                                                                       -0.362637E-03                 2           CLN-node number
     2 CALLS TO SPARSE MATRIX SOLVER PACKAGE  IN FLOW TIME STEP  12 STRESS PERIOD   1

 TOTAL OF       2OUTER ITERATIONS
  MAXIMUM CHANGE FOR EACH ITERATION:
  MAX. CHANGE   LAYER,  ROW,  COL MAX. CHANGE   LAYER,  ROW,  COL MAX. CHANGE   LAYER,  ROW,  COL MAX. CHANGE   LAYER,  ROW,  COL MAX. CHANGE   LAYER,  ROW,  COL
 ------------------------------------------------------------------------------------------------------------------------------------------
  -0.2662     (    2,   29,    1) -0.1629E-03 (    2,   50,   50)

  MAXIMUM CHANGE FOR CLN NODE AT EACH ITERATION:
   MAX. CHANGE    CLN-CELL  MAX. CHANGE    CLN-CELL  MAX. CHANGE    CLN-CELL  MAX. CHANGE    CLN-CELL  MAX. CHANGE    CLN-CELL
 ------------------------------------------------------------------------------------------------------------------------------------
  -0.22640    ,          2 -0.36264E-03,          2

 NO OUTPUT CONTROL FOR STRESS PERIOD        1   TIME STEP       12
 
 SOLVING FOR HEAD 

 Outer-Iteration  Inner-Iteration  Backtracking  Number of        Incoming       Outgoing  Maximum HeadChange      Maximum Head Change
     Number           Count           Flag       Backtracks       Residual       Residual           Value              Location
        1                             0             0           556122.          556122.    
        1               12                                                                       -0.265947               2     1     1  lay row col
        1               12                                                                       -0.225622                     2           CLN-node number
        2                             0             0           1513.36          1513.36    
        2                4                                                                       -0.160269E-03           2    50    50  lay row col
        2                4                                                                       -0.356837E-03                 2           CLN-node number
     2 CALLS TO SPARSE MATRIX SOLVER PACKAGE  IN FLOW TIME STEP  13 STRESS PERIOD   1

 TOTAL OF       2OUTER ITERATIONS
  MAXIMUM CHANGE FOR EACH ITERATION:
  MAX. CHANGE   LAYER,  ROW,  COL MAX. CHANGE   LAYER,  ROW,  COL MAX. CHANGE   LAYER,  ROW,  COL MAX. CHANGE   LAYER,  ROW,  COL MAX. CHANGE   LAYER,  ROW,  COL
 ------------------------------------------------------------------------------------------------------------------------------------------
  -0.2659     (    2,    1,    1) -0.1603E-03 (    2,   50,   50)

  MAXIMUM CHANGE FOR CLN NODE AT EACH ITERATION:
   MAX. CHANGE    CLN-CELL  MAX. CHANGE    CLN-CELL  MAX. CHANGE    CLN-CELL  MAX. CHANGE    CLN-CELL  MAX. CHANGE    CLN-CELL
 ------------------------------------------------------------------------------------------------------------------------------------
  -0.22562    ,          2 -0.35684E-03,          2

 NO OUTPUT CONTROL FOR STRESS PERIOD        1   TIME STEP       13
 
 SOLVING FOR HEAD 

 Outer-Iteration  Inner-Iteration  Backtracking  Number of        Incoming       Outgoing  Maximum HeadChange      Maximum Head Change
     Number           Count           Flag       Backtracks       Residual       Residual           Value              Location
        1                             0             0           549091.          549091.    
        1               12                                                                       -0.265598               2     1     1  lay row col
        1               12                                                                       -0.225183                     2           CLN-node number
        2                             0             0           2005.21          2005.21    
        2                4                                                                       -0.158394E-03           2    50    50  lay row col
        2                4                                                                       -0.352651E-03                 2           CLN-node number
     2 CALLS TO SPARSE MATRIX SOLVER PACKAGE  IN FLOW TIME STEP  14 STRESS PERIOD   1

 TOTAL OF       2OUTER ITERATIONS
  MAXIMUM CHANGE FOR EACH ITERATION:
  MAX. CHANGE   LAYER,  ROW,  COL MAX. CHANGE   LAYER,  ROW,  COL MAX. CHANGE   LAYER,  ROW,  COL MAX. CHANGE   LAYER,  ROW,  COL MAX. CHANGE   LAYER,  ROW,  COL
 ------------------------------------------------------------------------------------------------------------------------------------------
  -0.2656     (    2,    1,    1) -0.1584E-03 (    2,   50,   50)

  MAXIMUM CHANGE FOR CLN NODE AT EACH ITERATION:
   MAX. CHANGE    CLN-CELL  MAX. CHANGE    CLN-CELL  MAX. CHANGE    CLN-CELL  MAX. CHANGE    CLN-CELL  MAX. CHANGE    CLN-CELL
 ------------------------------------------------------------------------------------------------------------------------------------
  -0.22518    ,          2 -0.35265E-03,          2

 NO OUTPUT CONTROL FOR STRESS PERIOD        1   TIME STEP       14
 
 SOLVING FOR HEAD 

 Outer-Iteration  Inner-Iteration  Backtracking  Number of        Incoming       Outgoing  Maximum HeadChange      Maximum Head Change
     Number           Count           Flag       Backtracks       Residual       Residual           Value              Location
        1                             0             0           543235.          543235.    
        1               12                                                                       -0.265135               2     1     1  lay row col
        1               12                                                                       -0.224958                     2           CLN-node number
        2                             0             0           2721.79          2721.79    
        2                3                                                                       -0.153007E-03           2    50    50  lay row col
        2                3                                                                       -0.345615E-03                 2           CLN-node number
     2 CALLS TO SPARSE MATRIX SOLVER PACKAGE  IN FLOW TIME STEP  15 STRESS PERIOD   1

 TOTAL OF       2OUTER ITERATIONS
  MAXIMUM CHANGE FOR EACH ITERATION:
  MAX. CHANGE   LAYER,  ROW,  COL MAX. CHANGE   LAYER,  ROW,  COL MAX. CHANGE   LAYER,  ROW,  COL MAX. CHANGE   LAYER,  ROW,  COL MAX. CHANGE   LAYER,  ROW,  COL
 ------------------------------------------------------------------------------------------------------------------------------------------
  -0.2651     (    2,    1,    1) -0.1530E-03 (    2,   50,   50)

  MAXIMUM CHANGE FOR CLN NODE AT EACH ITERATION:
   MAX. CHANGE    CLN-CELL  MAX. CHANGE    CLN-CELL  MAX. CHANGE    CLN-CELL  MAX. CHANGE    CLN-CELL  MAX. CHANGE    CLN-CELL
 ------------------------------------------------------------------------------------------------------------------------------------
  -0.22496    ,          2 -0.34562E-03,          2

 NO OUTPUT CONTROL FOR STRESS PERIOD        1   TIME STEP       15
 
 SOLVING FOR HEAD 

 Outer-Iteration  Inner-Iteration  Backtracking  Number of        Incoming       Outgoing  Maximum HeadChange      Maximum Head Change
     Number           Count           Flag       Backtracks       Residual       Residual           Value              Location
        1                             0             0           538269.          538269.    
        1               12                                                                       -0.264618               2     1     1  lay row col
        1               12                                                                       -0.224873                     2           CLN-node number
        2                             0             0           3795.61          3795.61    
        2                3                                                                       -0.152073E-03           2    50    50  lay row col
        2                3                                                                       -0.343507E-03                 2           CLN-node number
     2 CALLS TO SPARSE MATRIX SOLVER PACKAGE  IN FLOW TIME STEP  16 STRESS PERIOD   1

 TOTAL OF       2OUTER ITERATIONS
  MAXIMUM CHANGE FOR EACH ITERATION:
  MAX. CHANGE   LAYER,  ROW,  COL MAX. CHANGE   LAYER,  ROW,  COL MAX. CHANGE   LAYER,  ROW,  COL MAX. CHANGE   LAYER,  ROW,  COL MAX. CHANGE   LAYER,  ROW,  COL
 ------------------------------------------------------------------------------------------------------------------------------------------
  -0.2646     (    2,    1,    1) -0.1521E-03 (    2,   50,   50)

  MAXIMUM CHANGE FOR CLN NODE AT EACH ITERATION:
   MAX. CHANGE    CLN-CELL  MAX. CHANGE    CLN-CELL  MAX. CHANGE    CLN-CELL  MAX. CHANGE    CLN-CELL  MAX. CHANGE    CLN-CELL
 ------------------------------------------------------------------------------------------------------------------------------------
  -0.22487    ,          2 -0.34351E-03,          2

 NO OUTPUT CONTROL FOR STRESS PERIOD        1   TIME STEP       16
 
 SOLVING FOR HEAD 

 Outer-Iteration  Inner-Iteration  Backtracking  Number of        Incoming       Outgoing  Maximum HeadChange      Maximum Head Change
     Number           Count           Flag       Backtracks       Residual       Residual           Value              Location
        1                             0             0           533987.          533987.    
        1               12                                                                       -0.264083               2     1     1  lay row col
        1               12                                                                       -0.224880                     2           CLN-node number
        2                             0             0           5460.59          5460.59    
        2                3                                                                       -0.151500E-03           2    50    50  lay row col
        2                3                                                                       -0.342212E-03                 2           CLN-node number
     2 CALLS TO SPARSE MATRIX SOLVER PACKAGE  IN FLOW TIME STEP  17 STRESS PERIOD   1

 TOTAL OF       2OUTER ITERATIONS
  MAXIMUM CHANGE FOR EACH ITERATION:
  MAX. CHANGE   LAYER,  ROW,  COL MAX. CHANGE   LAYER,  ROW,  COL MAX. CHANGE   LAYER,  ROW,  COL MAX. CHANGE   LAYER,  ROW,  COL MAX. CHANGE   LAYER,  ROW,  COL
 ------------------------------------------------------------------------------------------------------------------------------------------
  -0.2641     (    2,    1,    1) -0.1515E-03 (    2,   50,   50)

  MAXIMUM CHANGE FOR CLN NODE AT EACH ITERATION:
   MAX. CHANGE    CLN-CELL  MAX. CHANGE    CLN-CELL  MAX. CHANGE    CLN-CELL  MAX. CHANGE    CLN-CELL  MAX. CHANGE    CLN-CELL
 ------------------------------------------------------------------------------------------------------------------------------------
  -0.22488    ,          2 -0.34221E-03,          2

 NO OUTPUT CONTROL FOR STRESS PERIOD        1   TIME STEP       17
 
 SOLVING FOR HEAD 

 Outer-Iteration  Inner-Iteration  Backtracking  Number of        Incoming       Outgoing  Maximum HeadChange      Maximum Head Change
     Number           Count           Flag       Backtracks       Residual       Residual           Value              Location
        1                             0             0           530238.          530238.    
        1               12                                                                       -0.263548               2     1     1  lay row col
        1               12                                                                       -0.224951                     2           CLN-node number
        2                             0             0           8151.78          8151.78    
        2                3                                                                       -0.151321E-03           2    50    50  lay row col
        2                3                                                                       -0.341807E-03                 2           CLN-node number
     2 CALLS TO SPARSE MATRIX SOLVER PACKAGE  IN FLOW TIME STEP  18 STRESS PERIOD   1

 TOTAL OF       2OUTER ITERATIONS
  MAXIMUM CHANGE FOR EACH ITERATION:
  MAX. CHANGE   LAYER,  ROW,  COL MAX. CHANGE   LAYER,  ROW,  COL MAX. CHANGE   LAYER,  ROW,  COL MAX. CHANGE   LAYER,  ROW,  COL MAX. CHANGE   LAYER,  ROW,  COL
 ------------------------------------------------------------------------------------------------------------------------------------------
  -0.2635     (    2,    1,    1) -0.1513E-03 (    2,   50,   50)

  MAXIMUM CHANGE FOR CLN NODE AT EACH ITERATION:
   MAX. CHANGE    CLN-CELL  MAX. CHANGE    CLN-CELL  MAX. CHANGE    CLN-CELL  MAX. CHANGE    CLN-CELL  MAX. CHANGE    CLN-CELL
 ------------------------------------------------------------------------------------------------------------------------------------
  -0.22495    ,          2 -0.34181E-03,          2

 NO OUTPUT CONTROL FOR STRESS PERIOD        1   TIME STEP       18
 
 SOLVING FOR HEAD 

 Outer-Iteration  Inner-Iteration  Backtracking  Number of        Incoming       Outgoing  Maximum HeadChange      Maximum Head Change
     Number           Count           Flag       Backtracks       Residual       Residual           Value              Location
        1                             0             0           526907.          526907.    
        1               12                                                                       -0.263024               2     1     1  lay row col
        1               12                                                                       -0.225070                     2           CLN-node number
        2                             0             0           12727.9          12727.9    
        2                3                                                                       -0.151662E-03           2    50    50  lay row col
        2                3                                                                       -0.342579E-03                 2           CLN-node number
     2 CALLS TO SPARSE MATRIX SOLVER PACKAGE  IN FLOW TIME STEP  19 STRESS PERIOD   1

 TOTAL OF       2OUTER ITERATIONS
  MAXIMUM CHANGE FOR EACH ITERATION:
  MAX. CHANGE   LAYER,  ROW,  COL MAX. CHANGE   LAYER,  ROW,  COL MAX. CHANGE   LAYER,  ROW,  COL MAX. CHANGE   LAYER,  ROW,  COL MAX. CHANGE   LAYER,  ROW,  COL
 ------------------------------------------------------------------------------------------------------------------------------------------
  -0.2630     (    2,    1,    1) -0.1517E-03 (    2,   50,   50)

  MAXIMUM CHANGE FOR CLN NODE AT EACH ITERATION:
   MAX. CHANGE    CLN-CELL  MAX. CHANGE    CLN-CELL  MAX. CHANGE    CLN-CELL  MAX. CHANGE    CLN-CELL  MAX. CHANGE    CLN-CELL
 ------------------------------------------------------------------------------------------------------------------------------------
  -0.22507    ,          2 -0.34258E-03,          2

 NO OUTPUT CONTROL FOR STRESS PERIOD        1   TIME STEP       19
 
 SOLVING FOR HEAD 

 Outer-Iteration  Inner-Iteration  Backtracking  Number of        Incoming       Outgoing  Maximum HeadChange      Maximum Head Change
     Number           Count           Flag       Backtracks       Residual       Residual           Value              Location
        1                             0             0           523907.          523907.    
        1               12                                                                       -0.262514               2     1     1  lay row col
        1               12                                                                       -0.225225                     2           CLN-node number
        2                             0             0           21014.2          21014.2    
        2                4                                                                       -0.156868E-03           2    50    50  lay row col
        2                4                                                                       -0.349256E-03                 2           CLN-node number
     2 CALLS TO SPARSE MATRIX SOLVER PACKAGE  IN FLOW TIME STEP  20 STRESS PERIOD   1

 TOTAL OF       2OUTER ITERATIONS
  MAXIMUM CHANGE FOR EACH ITERATION:
  MAX. CHANGE   LAYER,  ROW,  COL MAX. CHANGE   LAYER,  ROW,  COL MAX. CHANGE   LAYER,  ROW,  COL MAX. CHANGE   LAYER,  ROW,  COL MAX. CHANGE   LAYER,  ROW,  COL
 ------------------------------------------------------------------------------------------------------------------------------------------
  -0.2625     (    2,    1,    1) -0.1569E-03 (    2,   50,   50)

  MAXIMUM CHANGE FOR CLN NODE AT EACH ITERATION:
   MAX. CHANGE    CLN-CELL  MAX. CHANGE    CLN-CELL  MAX. CHANGE    CLN-CELL  MAX. CHANGE    CLN-CELL  MAX. CHANGE    CLN-CELL
 ------------------------------------------------------------------------------------------------------------------------------------
  -0.22523    ,          2 -0.34926E-03,          2

 NO OUTPUT CONTROL FOR STRESS PERIOD        1   TIME STEP       20
 
 SOLVING FOR HEAD 

 Outer-Iteration  Inner-Iteration  Backtracking  Number of        Incoming       Outgoing  Maximum HeadChange      Maximum Head Change
     Number           Count           Flag       Backtracks       Residual       Residual           Value              Location
        1                             0             0           521167.          521167.    
        1               12                                                                       -0.262022               2     1     1  lay row col
        1               12                                                                       -0.225412                     2           CLN-node number
        2                             0             0           37266.3          37266.3    
        2                4                                                                       -0.159603E-03           2    50    50  lay row col
        2                4                                                                       -0.355353E-03                 2           CLN-node number
     2 CALLS TO SPARSE MATRIX SOLVER PACKAGE  IN FLOW TIME STEP  21 STRESS PERIOD   1

 TOTAL OF       2OUTER ITERATIONS
  MAXIMUM CHANGE FOR EACH ITERATION:
  MAX. CHANGE   LAYER,  ROW,  COL MAX. CHANGE   LAYER,  ROW,  COL MAX. CHANGE   LAYER,  ROW,  COL MAX. CHANGE   LAYER,  ROW,  COL MAX. CHANGE   LAYER,  ROW,  COL
 ------------------------------------------------------------------------------------------------------------------------------------------
  -0.2620     (    2,    1,    1) -0.1596E-03 (    2,   50,   50)

  MAXIMUM CHANGE FOR CLN NODE AT EACH ITERATION:
   MAX. CHANGE    CLN-CELL  MAX. CHANGE    CLN-CELL  MAX. CHANGE    CLN-CELL  MAX. CHANGE    CLN-CELL  MAX. CHANGE    CLN-CELL
 ------------------------------------------------------------------------------------------------------------------------------------
  -0.22541    ,          2 -0.35535E-03,          2

 NO OUTPUT CONTROL FOR STRESS PERIOD        1   TIME STEP       21
 
 SOLVING FOR HEAD 

 Outer-Iteration  Inner-Iteration  Backtracking  Number of        Incoming       Outgoing  Maximum HeadChange      Maximum Head Change
     Number           Count           Flag       Backtracks       Residual       Residual           Value              Location
        1                             0             0           518633.          518633.    
        1               12                                                                       -0.261546               2     1     1  lay row col
        1               12                                                                       -0.225634                     2           CLN-node number
        2                             0             0           72669.7          72669.7    
        2                4                                                                       -0.165585E-03           2    50    50  lay row col
        2                4                                                                       -0.368695E-03                 2           CLN-node number
     2 CALLS TO SPARSE MATRIX SOLVER PACKAGE  IN FLOW TIME STEP  22 STRESS PERIOD   1

 TOTAL OF       2OUTER ITERATIONS
  MAXIMUM CHANGE FOR EACH ITERATION:
  MAX. CHANGE   LAYER,  ROW,  COL MAX. CHANGE   LAYER,  ROW,  COL MAX. CHANGE   LAYER,  ROW,  COL MAX. CHANGE   LAYER,  ROW,  COL MAX. CHANGE   LAYER,  ROW,  COL
 ------------------------------------------------------------------------------------------------------------------------------------------
  -0.2615     (    2,    1,    1) -0.1656E-03 (    2,   50,   50)

  MAXIMUM CHANGE FOR CLN NODE AT EACH ITERATION:
   MAX. CHANGE    CLN-CELL  MAX. CHANGE    CLN-CELL  MAX. CHANGE    CLN-CELL  MAX. CHANGE    CLN-CELL  MAX. CHANGE    CLN-CELL
 ------------------------------------------------------------------------------------------------------------------------------------
  -0.22563    ,          2 -0.36869E-03,          2

 NO OUTPUT CONTROL FOR STRESS PERIOD        1   TIME STEP       22
 
 SOLVING FOR HEAD 

 Outer-Iteration  Inner-Iteration  Backtracking  Number of        Incoming       Outgoing  Maximum HeadChange      Maximum Head Change
     Number           Count           Flag       Backtracks       Residual       Residual           Value              Location
        1                             0             0           516254.          516254.    
        1               12                                                                       -0.261087               2     1     1  lay row col
        1               12                                                                       -0.225903                     2           CLN-node number
        2                             0             0           161702.          161702.    
        2                4                                                                       -0.179598E-03           2    50    50  lay row col
        2                4                                                                       -0.399960E-03                 2           CLN-node number
     2 CALLS TO SPARSE MATRIX SOLVER PACKAGE  IN FLOW TIME STEP  23 STRESS PERIOD   1

 TOTAL OF       2OUTER ITERATIONS
  MAXIMUM CHANGE FOR EACH ITERATION:
  MAX. CHANGE   LAYER,  ROW,  COL MAX. CHANGE   LAYER,  ROW,  COL MAX. CHANGE   LAYER,  ROW,  COL MAX. CHANGE   LAYER,  ROW,  COL MAX. CHANGE   LAYER,  ROW,  COL
 ------------------------------------------------------------------------------------------------------------------------------------------
  -0.2611     (    2,    1,    1) -0.1796E-03 (    2,   50,   50)

  MAXIMUM CHANGE FOR CLN NODE AT EACH ITERATION:
   MAX. CHANGE    CLN-CELL  MAX. CHANGE    CLN-CELL  MAX. CHANGE    CLN-CELL  MAX. CHANGE    CLN-CELL  MAX. CHANGE    CLN-CELL
 ------------------------------------------------------------------------------------------------------------------------------------
  -0.22590    ,          2 -0.39996E-03,          2

 NO OUTPUT CONTROL FOR STRESS PERIOD        1   TIME STEP       23
 
 SOLVING FOR HEAD 

 Outer-Iteration  Inner-Iteration  Backtracking  Number of        Incoming       Outgoing  Maximum HeadChange      Maximum Head Change
     Number           Count           Flag       Backtracks       Residual       Residual           Value              Location
        1                             0             0           513982.          513982.    
        1               12                                                                       -0.260642               2     1     1  lay row col
        1               12                                                                       -0.226258                     2           CLN-node number
        2                             0             0           437532.          437532.    
        2                4                                                                       -0.218275E-03           2    50    50  lay row col
        2                4                                                                       -0.486439E-03                 2           CLN-node number
     2 CALLS TO SPARSE MATRIX SOLVER PACKAGE  IN FLOW TIME STEP  24 STRESS PERIOD   1

 TOTAL OF       2OUTER ITERATIONS
  MAXIMUM CHANGE FOR EACH ITERATION:
  MAX. CHANGE   LAYER,  ROW,  COL MAX. CHANGE   LAYER,  ROW,  COL MAX. CHANGE   LAYER,  ROW,  COL MAX. CHANGE   LAYER,  ROW,  COL MAX. CHANGE   LAYER,  ROW,  COL
 ------------------------------------------------------------------------------------------------------------------------------------------
  -0.2606     (    2,    1,    1) -0.2183E-03 (    2,   50,   50)

  MAXIMUM CHANGE FOR CLN NODE AT EACH ITERATION:
   MAX. CHANGE    CLN-CELL  MAX. CHANGE    CLN-CELL  MAX. CHANGE    CLN-CELL  MAX. CHANGE    CLN-CELL  MAX. CHANGE    CLN-CELL
 ------------------------------------------------------------------------------------------------------------------------------------
  -0.22626    ,          2 -0.48644E-03,          2

 NO OUTPUT CONTROL FOR STRESS PERIOD        1   TIME STEP       24
 
 SOLVING FOR HEAD 

 Outer-Iteration  Inner-Iteration  Backtracking  Number of        Incoming       Outgoing  Maximum HeadChange      Maximum Head Change
     Number           Count           Flag       Backtracks       Residual       Residual           Value              Location
        1                             0             0           511751.          511751.    
        1               10                                                                       -0.260176               2     1     1  lay row col
        1               10                                                                       -0.226838                     2           CLN-node number
        2                             0             0          0.162578E+07     0.162578E+07
        2                4                                                                       -0.364118E-03           2    50    50  lay row col
        2                4                                                                        0.175637E-02                 1           CLN-node number
        3                             0             0           6851.78          6851.78    
        3                2                                                                        0.335791E-04           1    50    50  lay row col
        3                2                                                                        0.165419E-03                 1           CLN-node number
     3 CALLS TO SPARSE MATRIX SOLVER PACKAGE  IN FLOW TIME STEP  25 STRESS PERIOD   1

 TOTAL OF       3OUTER ITERATIONS
  MAXIMUM CHANGE FOR EACH ITERATION:
  MAX. CHANGE   LAYER,  ROW,  COL MAX. CHANGE   LAYER,  ROW,  COL MAX. CHANGE   LAYER,  ROW,  COL MAX. CHANGE   LAYER,  ROW,  COL MAX. CHANGE   LAYER,  ROW,  COL
 ------------------------------------------------------------------------------------------------------------------------------------------
  -0.2602     (    2,    1,    1) -0.3641E-03 (    2,   50,   50)  0.3358E-04 (    1,   50,   50)

  MAXIMUM CHANGE FOR CLN NODE AT EACH ITERATION:
   MAX. CHANGE    CLN-CELL  MAX. CHANGE    CLN-CELL  MAX. CHANGE    CLN-CELL  MAX. CHANGE    CLN-CELL  MAX. CHANGE    CLN-CELL
 ------------------------------------------------------------------------------------------------------------------------------------
  -0.22684    ,          2  0.17564E-02,          1  0.16542E-03,          1

 NO OUTPUT CONTROL FOR STRESS PERIOD        1   TIME STEP       25
 
 SOLVING FOR HEAD 

 Outer-Iteration  Inner-Iteration  Backtracking  Number of        Incoming       Outgoing  Maximum HeadChange      Maximum Head Change
     Number           Count           Flag       Backtracks       Residual       Residual           Value              Location
        1                             0             0           509066.          509066.    
        1               13                                                                       -0.259805               2     1     1  lay row col
        1               13                                                                       -0.228246                     2           CLN-node number
        2                             0             0          0.108310E+08     0.108310E+08
        2                6                                                                        0.169443E-02           1    50    50  lay row col
        2                6                                                                        0.124945E-01                 1           CLN-node number
        3                             0             0           1354.41          1354.41    
        3                3                                                                        0.945057E-04           2    50    50  lay row col
        3                3                                                                        0.312727E-03                 1           CLN-node number
     3 CALLS TO SPARSE MATRIX SOLVER PACKAGE  IN FLOW TIME STEP  26 STRESS PERIOD   1

 TOTAL OF       3OUTER ITERATIONS
  MAXIMUM CHANGE FOR EACH ITERATION:
  MAX. CHANGE   LAYER,  ROW,  COL MAX. CHANGE   LAYER,  ROW,  COL MAX. CHANGE   LAYER,  ROW,  COL MAX. CHANGE   LAYER,  ROW,  COL MAX. CHANGE   LAYER,  ROW,  COL
 ------------------------------------------------------------------------------------------------------------------------------------------
  -0.2598     (    2,    1,    1)  0.1694E-02 (    1,   50,   50)  0.9451E-04 (    2,   50,   50)

  MAXIMUM CHANGE FOR CLN NODE AT EACH ITERATION:
   MAX. CHANGE    CLN-CELL  MAX. CHANGE    CLN-CELL  MAX. CHANGE    CLN-CELL  MAX. CHANGE    CLN-CELL  MAX. CHANGE    CLN-CELL
 ------------------------------------------------------------------------------------------------------------------------------------
  -0.22825    ,          2  0.12494E-01,          1  0.31273E-03,          1

 NO OUTPUT CONTROL FOR STRESS PERIOD        1   TIME STEP       26
 
 SOLVING FOR HEAD 

 Outer-Iteration  Inner-Iteration  Backtracking  Number of        Incoming       Outgoing  Maximum HeadChange      Maximum Head Change
     Number           Count           Flag       Backtracks       Residual       Residual           Value              Location
        1                             0             0           505020.          505020.    
        1               10                                                                       -0.259416               2     1     1  lay row col
        1               10                                                                       -0.236896                     2           CLN-node number
        2                             0             0          0.261130E+08     0.261130E+08
        2                8                                                                        0.982867E-02           1    50    50  lay row col
        2                8                                                                        0.196431E-01                 1           CLN-node number
        3                             0             0           192288.          192288.    
        3                4                                                                        0.578261E-03           1    50    50  lay row col
        3                4                                                                       -0.127111E-02                 1           CLN-node number
        4                             0             0           6816.08          6816.08    
        4                2                                                                        0.334395E-04           2    50    50  lay row col
        4                2                                                                       -0.252627E-03                 1           CLN-node number
     4 CALLS TO SPARSE MATRIX SOLVER PACKAGE  IN FLOW TIME STEP  27 STRESS PERIOD   1

 TOTAL OF       4OUTER ITERATIONS
  MAXIMUM CHANGE FOR EACH ITERATION:
  MAX. CHANGE   LAYER,  ROW,  COL MAX. CHANGE   LAYER,  ROW,  COL MAX. CHANGE   LAYER,  ROW,  COL MAX. CHANGE   LAYER,  ROW,  COL MAX. CHANGE   LAYER,  ROW,  COL
 ------------------------------------------------------------------------------------------------------------------------------------------
  -0.2594     (    2,    1,    1)  0.9829E-02 (    1,   50,   50)  0.5783E-03 (    1,   50,   50)  0.3344E-04 (    2,   50,   50)

  MAXIMUM CHANGE FOR CLN NODE AT EACH ITERATION:
   MAX. CHANGE    CLN-CELL  MAX. CHANGE    CLN-CELL  MAX. CHANGE    CLN-CELL  MAX. CHANGE    CLN-CELL  MAX. CHANGE    CLN-CELL
 ------------------------------------------------------------------------------------------------------------------------------------
  -0.23690    ,          2  0.19643E-01,          1 -0.12711E-02,          1 -0.25263E-03,          1

 NO OUTPUT CONTROL FOR STRESS PERIOD        1   TIME STEP       27
 
 SOLVING FOR HEAD 

 Outer-Iteration  Inner-Iteration  Backtracking  Number of        Incoming       Outgoing  Maximum HeadChange      Maximum Head Change
     Number           Count           Flag       Backtracks       Residual       Residual           Value              Location
        1                             0             0           490883.          490883.    
        1               10                                                                       -0.262760               2    50    50  lay row col
        1               10                                                                       -0.268951                     2           CLN-node number
        2                             0             0          0.385063E+08     0.385063E+08
        2                6                                                                        0.245690E-02           1    50    50  lay row col
        2                6                                                                        0.100279E-01                 1           CLN-node number
        3                             0             0           196134.          196134.    
        3                2                                                                        0.206297E-03           1    50    50  lay row col
        3                2                                                                        0.685414E-03                 1           CLN-node number
     3 CALLS TO SPARSE MATRIX SOLVER PACKAGE  IN FLOW TIME STEP  28 STRESS PERIOD   1

 TOTAL OF       3OUTER ITERATIONS
  MAXIMUM CHANGE FOR EACH ITERATION:
  MAX. CHANGE   LAYER,  ROW,  COL MAX. CHANGE   LAYER,  ROW,  COL MAX. CHANGE   LAYER,  ROW,  COL MAX. CHANGE   LAYER,  ROW,  COL MAX. CHANGE   LAYER,  ROW,  COL
 ------------------------------------------------------------------------------------------------------------------------------------------
  -0.2628     (    2,   50,   50)  0.2457E-02 (    1,   50,   50)  0.2063E-03 (    1,   50,   50)

  MAXIMUM CHANGE FOR CLN NODE AT EACH ITERATION:
   MAX. CHANGE    CLN-CELL  MAX. CHANGE    CLN-CELL  MAX. CHANGE    CLN-CELL  MAX. CHANGE    CLN-CELL  MAX. CHANGE    CLN-CELL
 ------------------------------------------------------------------------------------------------------------------------------------
  -0.26895    ,          2  0.10028E-01,          1  0.68541E-03,          1

 NO OUTPUT CONTROL FOR STRESS PERIOD        1   TIME STEP       28
 
 SOLVING FOR HEAD 

 Outer-Iteration  Inner-Iteration  Backtracking  Number of        Incoming       Outgoing  Maximum HeadChange      Maximum Head Change
     Number           Count           Flag       Backtracks       Residual       Residual           Value              Location
        1                             0             0           474545.          474545.    
        1               13                                                                       -0.265205               2    50    50  lay row col
        1               13                                                                       -0.272755                     2           CLN-node number
        2                             0             0          0.817615E+07     0.817615E+07
        2                4                                                                        0.339856E-03           1    50    50  lay row col
        2                4                                                                        0.281348E-02                 1           CLN-node number
        3                             0             0           75071.8          75071.8    
        3                2                                                                        0.323379E-04           1    50    50  lay row col
        3                2                                                                        0.268036E-03                 1           CLN-node number
     3 CALLS TO SPARSE MATRIX SOLVER PACKAGE  IN FLOW TIME STEP  29 STRESS PERIOD   1

 TOTAL OF       3OUTER ITERATIONS
  MAXIMUM CHANGE FOR EACH ITERATION:
  MAX. CHANGE   LAYER,  ROW,  COL MAX. CHANGE   LAYER,  ROW,  COL MAX. CHANGE   LAYER,  ROW,  COL MAX. CHANGE   LAYER,  ROW,  COL MAX. CHANGE   LAYER,  ROW,  COL
 ------------------------------------------------------------------------------------------------------------------------------------------
  -0.2652     (    2,   50,   50)  0.3399E-03 (    1,   50,   50)  0.3234E-04 (    1,   50,   50)

  MAXIMUM CHANGE FOR CLN NODE AT EACH ITERATION:
   MAX. CHANGE    CLN-CELL  MAX. CHANGE    CLN-CELL  MAX. CHANGE    CLN-CELL  MAX. CHANGE    CLN-CELL  MAX. CHANGE    CLN-CELL
 ------------------------------------------------------------------------------------------------------------------------------------
  -0.27275    ,          2  0.28135E-02,          1  0.26804E-03,          1

 NO OUTPUT CONTROL FOR STRESS PERIOD        1   TIME STEP       29
 
 SOLVING FOR HEAD 

 Outer-Iteration  Inner-Iteration  Backtracking  Number of        Incoming       Outgoing  Maximum HeadChange      Maximum Head Change
     Number           Count           Flag       Backtracks       Residual       Residual           Value              Location
        1                             0             0           462528.          462528.    
        1               12                                                                       -0.265039               2    50    50  lay row col
        1               12                                                                       -0.271691                     2           CLN-node number
        2                             0             0          0.130489E+07     0.130489E+07
        2                3                                                                        0.952455E-04           1    50    50  lay row col
        2                3                                                                        0.815541E-03                 1           CLN-node number
     2 CALLS TO SPARSE MATRIX SOLVER PACKAGE  IN FLOW TIME STEP  30 STRESS PERIOD   1

 TOTAL OF       2OUTER ITERATIONS
  MAXIMUM CHANGE FOR EACH ITERATION:
  MAX. CHANGE   LAYER,  ROW,  COL MAX. CHANGE   LAYER,  ROW,  COL MAX. CHANGE   LAYER,  ROW,  COL MAX. CHANGE   LAYER,  ROW,  COL MAX. CHANGE   LAYER,  ROW,  COL
 ------------------------------------------------------------------------------------------------------------------------------------------
  -0.2650     (    2,   50,   50)  0.9525E-04 (    1,   50,   50)

  MAXIMUM CHANGE FOR CLN NODE AT EACH ITERATION:
   MAX. CHANGE    CLN-CELL  MAX. CHANGE    CLN-CELL  MAX. CHANGE    CLN-CELL  MAX. CHANGE    CLN-CELL  MAX. CHANGE    CLN-CELL
 ------------------------------------------------------------------------------------------------------------------------------------
  -0.27169    ,          2  0.81554E-03,          1

 NO OUTPUT CONTROL FOR STRESS PERIOD        1   TIME STEP       30
 
 SOLVING FOR HEAD 

 Outer-Iteration  Inner-Iteration  Backtracking  Number of        Incoming       Outgoing  Maximum HeadChange      Maximum Head Change
     Number           Count           Flag       Backtracks       Residual       Residual           Value              Location
        1                             0             0           453189.          453189.    
        1               12                                                                       -0.264723               2    50    50  lay row col
        1               12                                                                       -0.270665                     2           CLN-node number
        2                             0             0           363823.          363823.    
        2                2                                                                        0.379971E-04           1    50    50  lay row col
        2                2                                                                        0.338648E-03                 1           CLN-node number
     2 CALLS TO SPARSE MATRIX SOLVER PACKAGE  IN FLOW TIME STEP  31 STRESS PERIOD   1

 TOTAL OF       2OUTER ITERATIONS
  MAXIMUM CHANGE FOR EACH ITERATION:
  MAX. CHANGE   LAYER,  ROW,  COL MAX. CHANGE   LAYER,  ROW,  COL MAX. CHANGE   LAYER,  ROW,  COL MAX. CHANGE   LAYER,  ROW,  COL MAX. CHANGE   LAYER,  ROW,  COL
 ------------------------------------------------------------------------------------------------------------------------------------------
  -0.2647     (    2,   50,   50)  0.3800E-04 (    1,   50,   50)

  MAXIMUM CHANGE FOR CLN NODE AT EACH ITERATION:
   MAX. CHANGE    CLN-CELL  MAX. CHANGE    CLN-CELL  MAX. CHANGE    CLN-CELL  MAX. CHANGE    CLN-CELL  MAX. CHANGE    CLN-CELL
 ------------------------------------------------------------------------------------------------------------------------------------
  -0.27066    ,          2  0.33865E-03,          1

[...]
        37.17       37.17       37.16       37.16       37.16       37.16       37.15       37.15       37.14       37.14    
        37.13       37.13       37.12       37.11       37.10       37.10       37.09       37.08       37.07       37.07    
        37.06       37.05       37.04       37.03       37.03       37.02       37.01       37.00       36.99       36.99    
        36.98       36.97       36.97       36.96       36.95       36.95       36.94       36.94       36.93       36.93    
        36.92       36.92       36.92       36.91       36.91       36.91       36.91       36.91       36.91       36.91    
  88    36.93       36.93       36.93       36.94       36.94       36.94       36.94       36.94       36.95       36.95    
        36.95       36.96       36.96       36.97       36.97       36.98       36.98       36.99       37.00       37.00    
        37.01       37.01       37.02       37.03       37.04       37.04       37.05       37.06       37.06       37.07    
        37.08       37.08       37.09       37.10       37.10       37.11       37.12       37.12       37.13       37.13    
        37.14       37.14       37.14       37.15       37.15       37.15       37.15       37.15       37.15       37.15    
        37.15       37.15       37.15       37.15       37.15       37.14       37.14       37.13       37.13       37.12    
        37.12       37.11       37.11       37.10       37.09       37.09       37.08       37.07       37.06       37.06    
        37.05       37.04       37.03       37.03       37.02       37.01       37.00       37.00       36.99       36.98    
        36.97       36.97       36.96       36.95       36.95       36.94       36.94       36.93       36.93       36.92    
        36.92       36.92       36.91       36.91       36.91       36.91       36.90       36.90       36.90       36.90    
  89    36.93       36.93       36.93       36.93       36.93       36.93       36.94       36.94       36.94       36.95    
        36.95       36.95       36.96       36.96       36.97       36.97       36.98       36.98       36.99       37.00    
        37.00       37.01       37.01       37.02       37.03       37.03       37.04       37.05       37.06       37.06    
        37.07       37.08       37.08       37.09       37.09       37.10       37.11       37.11       37.12       37.12    
        37.12       37.13       37.13       37.13       37.14       37.14       37.14       37.14       37.14       37.14    
        37.14       37.14       37.14       37.14       37.13       37.13       37.13       37.12       37.12       37.11    
        37.11       37.10       37.10       37.09       37.08       37.08       37.07       37.06       37.06       37.05    
        37.04       37.03       37.03       37.02       37.01       37.00       37.00       36.99       36.98       36.97    
        36.97       36.96       36.96       36.95       36.94       36.94       36.93       36.93       36.92       36.92    
        36.92       36.91       36.91       36.91       36.90       36.90       36.90       36.90       36.90       36.90    
  90    36.93       36.93       36.93       36.93       36.93       36.93       36.93       36.94       36.94       36.94    
        36.95       36.95       36.95       36.96       36.96       36.97       36.97       36.98       36.98       36.99    
        37.00       37.00       37.01       37.01       37.02       37.03       37.03       37.04       37.05       37.05    
        37.06       37.07       37.07       37.08       37.08       37.09       37.10       37.10       37.10       37.11    
        37.11       37.12       37.12       37.12       37.12       37.13       37.13       37.13       37.13       37.13    
        37.13       37.13       37.13       37.12       37.12       37.12       37.11       37.11       37.11       37.10    
        37.10       37.09       37.09       37.08       37.07       37.07       37.06       37.05       37.05       37.04    
        37.03       37.03       37.02       37.01       37.00       37.00       36.99       36.98       36.98       36.97    
        36.96       36.96       36.95       36.94       36.94       36.93       36.93       36.92       36.92       36.92    
        36.91       36.91       36.91       36.90       36.90       36.90       36.90       36.90       36.89       36.89    
  91    36.92       36.92       36.92       36.92       36.93       36.93       36.93       36.93       36.93       36.94    
        36.94       36.95       36.95       36.95       36.96       36.96       36.97       36.97       36.98       36.98    
        36.99       37.00       37.00       37.01       37.01       37.02       37.03       37.03       37.04       37.05    
        37.05       37.06       37.06       37.07       37.08       37.08       37.09       37.09       37.10       37.10    
        37.10       37.11       37.11       37.11       37.11       37.12       37.12       37.12       37.12       37.12    
        37.12       37.12       37.12       37.11       37.11       37.11       37.10       37.10       37.10       37.09    
        37.09       37.08       37.08       37.07       37.06       37.06       37.05       37.05       37.04       37.03    
        37.03       37.02       37.01       37.00       37.00       36.99       36.98       36.98       36.97       36.96    
        36.96       36.95       36.95       36.94       36.93       36.93       36.92       36.92       36.92       36.91    
        36.91       36.90       36.90       36.90       36.90       36.89       36.89       36.89       36.89       36.89    
  92    36.92       36.92       36.92       36.92       36.92       36.92       36.93       36.93       36.93       36.93    
        36.94       36.94       36.95       36.95       36.95       36.96       36.96       36.97       36.97       36.98    
        36.99       36.99       37.00       37.00       37.01       37.02       37.02       37.03       37.03       37.04    
        37.05       37.05       37.06       37.06       37.07       37.07       37.08       37.08       37.09       37.09    
        37.09       37.10       37.10       37.10       37.11       37.11       37.11       37.11       37.11       37.11    
        37.11       37.11       37.11       37.10       37.10       37.10       37.10       37.09       37.09       37.08    
        37.08       37.07       37.07       37.06       37.06       37.05       37.04       37.04       37.03       37.03    
        37.02       37.01       37.01       37.00       36.99       36.98       36.98       36.97       36.97       36.96    
        36.95       36.95       36.94       36.94       36.93       36.93       36.92       36.92       36.91       36.91    
        36.90       36.90       36.90       36.90       36.89       36.89       36.89       36.89       36.89       36.89    
  93    36.92       36.92       36.92       36.92       36.92       36.92       36.92       36.93       36.93       36.93    
        36.93       36.94       36.94       36.95       36.95       36.95       36.96       36.96       36.97       36.98    
        36.98       36.99       36.99       37.00       37.00       37.01       37.02       37.02       37.03       37.03    
        37.04       37.04       37.05       37.06       37.06       37.07       37.07       37.07       37.08       37.08    
        37.09       37.09       37.09       37.09       37.10       37.10       37.10       37.10       37.10       37.10    
        37.10       37.10       37.10       37.10       37.09       37.09       37.09       37.08       37.08       37.08    
        37.07       37.07       37.06       37.06       37.05       37.04       37.04       37.03       37.03       37.02    
        37.01       37.01       37.00       36.99       36.99       36.98       36.97       36.97       36.96       36.95    
        36.95       36.94       36.94       36.93       36.93       36.92       36.92       36.91       36.91       36.91    
        36.90       36.90       36.90       36.89       36.89       36.89       36.89       36.89       36.89       36.89    
  94    36.91       36.91       36.91       36.92       36.92       36.92       36.92       36.92       36.93       36.93    
        36.93       36.94       36.94       36.94       36.95       36.95       36.96       36.96       36.97       36.97    
        36.98       36.98       36.99       36.99       37.00       37.01       37.01       37.02       37.02       37.03    
        37.03       37.04       37.04       37.05       37.05       37.06       37.06       37.07       37.07       37.08    
        37.08       37.08       37.09       37.09       37.09       37.09       37.09       37.09       37.09       37.09    
        37.09       37.09       37.09       37.09       37.09       37.08       37.08       37.08       37.07       37.07    
        37.06       37.06       37.06       37.05       37.04       37.04       37.03       37.03       37.02       37.01    
        37.01       37.00       37.00       36.99       36.98       36.98       36.97       36.96       36.96       36.95    
        36.95       36.94       36.93       36.93       36.92       36.92       36.91       36.91       36.91       36.90    
        36.90       36.90       36.89       36.89       36.89       36.89       36.89       36.88       36.88       36.88    
  95    36.91       36.91       36.91       36.91       36.91       36.92       36.92       36.92       36.92       36.93    
        36.93       36.93       36.94       36.94       36.94       36.95       36.95       36.96       36.96       36.97    
        36.97       36.98       36.98       36.99       37.00       37.00       37.01       37.01       37.02       37.02    
        37.03       37.03       37.04       37.04       37.05       37.05       37.06       37.06       37.07       37.07    
        37.07       37.08       37.08       37.08       37.08       37.08       37.09       37.09       37.09       37.09    
        37.09       37.09       37.08       37.08       37.08       37.08       37.07       37.07       37.07       37.06    
        37.06       37.05       37.05       37.04       37.04       37.03       37.03       37.02       37.02       37.01    
        37.00       37.00       36.99       36.98       36.98       36.97       36.97       36.96       36.95       36.95    
        36.94       36.94       36.93       36.93       36.92       36.92       36.91       36.91       36.90       36.90    
        36.90       36.89       36.89       36.89       36.89       36.88       36.88       36.88       36.88       36.88    
  96    36.91       36.91       36.91       36.91       36.91       36.91       36.92       36.92       36.92       36.92    
        36.93       36.93       36.93       36.94       36.94       36.95       36.95       36.96       36.96       36.97    
        36.97       36.98       36.98       36.99       36.99       37.00       37.00       37.01       37.01       37.02    
        37.03       37.03       37.04       37.04       37.05       37.05       37.05       37.06       37.06       37.07    
        37.07       37.07       37.07       37.08       37.08       37.08       37.08       37.08       37.08       37.08    
        37.08       37.08       37.08       37.08       37.07       37.07       37.07       37.07       37.06       37.06    
        37.05       37.05       37.05       37.04       37.03       37.03       37.02       37.02       37.01       37.01    
        37.00       36.99       36.99       36.98       36.98       36.97       36.96       36.96       36.95       36.95    
        36.94       36.93       36.93       36.92       36.92       36.91       36.91       36.91       36.90       36.90    
        36.89       36.89       36.89       36.89       36.88       36.88       36.88       36.88       36.88       36.88    
  97    36.91       36.91       36.91       36.91       36.91       36.91       36.92       36.92       36.92       36.92    
        36.93       36.93       36.93       36.94       36.94       36.94       36.95       36.95       36.96       36.96    
        36.97       36.97       36.98       36.98       36.99       37.00       37.00       37.01       37.01       37.02    
        37.02       37.03       37.03       37.04       37.04       37.05       37.05       37.05       37.06       37.06    
        37.06       37.07       37.07       37.07       37.07       37.08       37.08       37.08       37.08       37.08    
        37.08       37.08       37.07       37.07       37.07       37.07       37.07       37.06       37.06       37.05    
        37.05       37.05       37.04       37.04       37.03       37.03       37.02       37.01       37.01       37.00    
        37.00       36.99       36.98       36.98       36.97       36.97       36.96       36.95       36.95       36.94    
        36.94       36.93       36.93       36.92       36.92       36.91       36.91       36.90       36.90       36.90    
        36.89       36.89       36.89       36.89       36.88       36.88       36.88       36.88       36.88       36.88    
  98    36.91       36.91       36.91       36.91       36.91       36.91       36.91       36.92       36.92       36.92    
        36.92       36.93       36.93       36.93       36.94       36.94       36.95       36.95       36.96       36.96    
        36.97       36.97       36.98       36.98       36.99       36.99       37.00       37.00       37.01       37.01    
        37.02       37.02       37.03       37.03       37.04       37.04       37.05       37.05       37.06       37.06    
        37.06       37.06       37.07       37.07       37.07       37.07       37.07       37.07       37.07       37.07    
        37.07       37.07       37.07       37.07       37.07       37.07       37.06       37.06       37.06       37.05    
        37.05       37.04       37.04       37.03       37.03       37.02       37.02       37.01       37.01       37.00    
        36.99       36.99       36.98       36.98       36.97       36.96       36.96       36.95       36.95       36.94    
        36.94       36.93       36.93       36.92       36.92       36.91       36.91       36.90       36.90       36.90    
        36.89       36.89       36.89       36.88       36.88       36.88       36.88       36.88       36.88       36.88    
  99    36.91       36.91       36.91       36.91       36.91       36.91       36.91       36.92       36.92       36.92    
        36.92       36.93       36.93       36.93       36.94       36.94       36.95       36.95       36.96       36.96    
        36.97       36.97       36.98       36.98       36.99       36.99       37.00       37.00       37.01       37.01    
        37.02       37.02       37.03       37.03       37.04       37.04       37.05       37.05       37.05       37.06    
        37.06       37.06       37.07       37.07       37.07       37.07       37.07       37.07       37.07       37.07    
        37.07       37.07       37.07       37.07       37.07       37.06       37.06       37.06       37.05       37.05    
        37.05       37.04       37.04       37.03       37.03       37.02       37.02       37.01       37.01       37.00    
        36.99       36.99       36.98       36.98       36.97       36.96       36.96       36.95       36.95       36.94    
        36.93       36.93       36.92       36.92       36.91       36.91       36.91       36.90       36.90       36.89    
        36.89       36.89       36.89       36.88       36.88       36.88       36.88       36.88       36.88       36.88    
 100    36.91       36.91       36.91       36.91       36.91       36.91       36.91       36.91       36.92       36.92    
        36.92       36.93       36.93       36.93       36.94       36.94       36.95       36.95       36.96       36.96    
        36.97       36.97       36.98       36.98       36.99       36.99       37.00       37.00       37.01       37.01    
        37.02       37.02       37.03       37.03       37.04       37.04       37.05       37.05       37.05       37.06    
        37.06       37.06       37.06       37.07       37.07       37.07       37.07       37.07       37.07       37.07    
        37.07       37.07       37.07       37.07       37.06       37.06       37.06       37.06       37.05       37.05    
        37.04       37.04       37.04       37.03       37.03       37.02       37.02       37.01       37.00       37.00    
        36.99       36.99       36.98       36.97       36.97       36.96       36.96       36.95       36.95       36.94    
        36.93       36.93       36.92       36.92       36.91       36.91       36.91       36.90       36.90       36.89    
        36.89       36.89       36.89       36.88       36.88       36.88       36.88       36.88       36.88       36.88    

 DRAWDOWN WILL BE SAVED ON UNIT   31 AT END OF TIME STEP 160, STRESS PERIOD    1
1
         CLN HEADS IN LAYER   1 AT END OF TIME STEP 160 IN STRESS PERIOD    1
  ---------------------------------------------------------------------------

            1           2
 ........................
   1   2.4355E-04  -19.95    

 CLN HEAD WILL BE SAVED ON UNIT   36 AT END OF TIME STEP 160, STRESS PERIOD    1
1
      CLN DRAWDOWN IN LAYER   1 AT END OF TIME STEP 160 IN STRESS PERIOD    1
  ---------------------------------------------------------------------------

            1           2
 ........................
   1   10.000       49.95    
1
  VOLUMETRIC BUDGET FOR ENTIRE MODEL AT END OF TIME STEP     160 IN STRESS PERIOD       1
  ---------------------------------------------------------------------------------------

     CUMULATIVE VOLUMES      L**3       RATES FOR THIS TIME STEP      L**3/T
     ------------------                 ------------------------

           IN:                                      IN:
           ---                                      ---
             STORAGE =     9041543.9870               STORAGE =       31588.1169
         CLN STORAGE =          15.6675           CLN STORAGE =       3.0473E-04
       CONSTANT HEAD =           0.0000         CONSTANT HEAD =           0.0000
      CLN CONST HEAD =           0.0000        CLN CONST HEAD =           0.0000
               WELLS =           0.0000                 WELLS =           0.0000

            TOTAL IN =     9041559.6544              TOTAL IN =       31588.1172

          OUT:                                     OUT:
          ----                                     ----
             STORAGE =         453.6076               STORAGE =           0.3240
         CLN STORAGE =           0.0000           CLN STORAGE =           0.0000
       CONSTANT HEAD =           0.0000         CONSTANT HEAD =           0.0000
      CLN CONST HEAD =           0.0000        CLN CONST HEAD =           0.0000
               WELLS =     9041185.4824                 WELLS =       31588.0625

           TOTAL OUT =     9041639.0900             TOTAL OUT =       31588.3865

            IN - OUT =         -79.4356              IN - OUT =          -0.2693

 PERCENT DISCREPANCY =          -0.00     PERCENT DISCREPANCY =          -0.00






          TIME SUMMARY AT END OF TIME STEP       160 IN STRESS PERIOD         1
                    SECONDS     MINUTES      HOURS       DAYS        YEARS
                    -----------------------------------------------------------
   TIME STEP LENGTH  86400.      1440.0      24.000      1.0000     2.73785E-03
 STRESS PERIOD TIME 1.38240E+07 2.30400E+05  3840.0      160.00     0.43806    
         TOTAL TIME 1.38240E+07 2.30400E+05  3840.0      160.00     0.43806    
1

 Run end date and time (yyyy/mm/dd hh:mm:ss): 2017/01/10 14:19:42
 Elapsed run time: 17.315 Seconds

